@<TRIPOS>MOLECULE
ZINC03830507
   41    43     0     0     0
SMALL
USER_CHARGES

@<TRIPOS>ATOM
      1 C1          2.2588   -3.8701    0.3359 C.3       1 <0>        -0.1444
      2 C2          1.1923   -2.8153    0.1914 C.2       1 <0>         0.4521
      3 O1          1.5025   -1.6513    0.0980 O.2       1 <0>        -0.5047
      4 O2         -0.1024   -3.1690    0.1664 O.3       1 <0>        -0.3742
      5 C3         -1.0596   -2.1172    0.0270 C.3       1 <0>         0.1400
      6 C4         -2.4401   -2.7080   -0.1005 C.2       1 <0>        -0.1844
      7 C5         -3.4337   -1.8398   -0.2207 C.2       1 <0>         0.0974
      8 N1         -4.7565   -2.2823   -0.3937 N.am      1 <0>        -0.5504
      9 C6         -5.2852   -3.6463   -0.1320 C.3       1 <0>         0.1193
     10 H1         -5.5721   -3.8513    0.8994 H         1 <0>         0.1397
     11 C7         -6.4248   -3.2747   -1.0564 C.3       1 <0>         0.1273
     12 H2         -7.4144   -3.4552   -0.6366 H         1 <0>         0.1485
     13 C8         -5.9242   -1.8692   -0.8641 C.2       1 <0>         0.5268
     14 O3         -6.4062   -0.7742   -1.0638 O.2       1 <0>        -0.4386
     15 N2         -6.2762   -3.7838   -2.4220 N.am      1 <0>        -0.6962
     16 C9         -7.3661   -3.9820   -3.1896 C.2       1 <0>         0.5203
     17 O4         -8.4699   -3.7390   -2.7498 O.2       1 <0>        -0.5180
     18 C10        -7.2133   -4.5057   -4.5944 C.3       1 <0>        -0.0554
     19 C11        -8.5723   -4.6365   -5.2323 C.2       1 <0>        -0.1227
     20 C12        -9.2658   -3.7257   -5.9582 C.2       1 <0>        -0.1467
     21 C13       -10.5104   -4.0692   -6.4518 C.2       1 <0>        -0.1524
     22 C14       -11.0007   -5.3066   -6.1954 C.2       1 <0>        -0.1786
     23 S1         -9.6833   -6.0340   -5.2349 S.3       1 <0>         0.0436
     24 S2         -4.0531   -4.8087   -0.8124 S.3       1 <0>        -0.2374
     25 C15        -2.5172   -4.2005   -0.0813 C.3       1 <0>        -0.0175
     26 C16        -3.1492   -0.3964   -0.1722 C.2       1 <0>         0.5146
     27 O5         -1.9919   -0.0022   -0.1252 O.co2     1 <0>        -0.6578
     28 O6         -4.0701    0.4091   -0.1788 O.co2     1 <0>        -0.6480
     29 H3          3.2406   -3.3965    0.3359 H         1 <0>         0.0960
     30 H4          2.1144   -4.4069    1.2735 H         1 <0>         0.0949
     31 H5          2.1930   -4.5699   -0.4973 H         1 <0>         0.0948
     32 H6         -1.0203   -1.4716    0.9044 H         1 <0>         0.0948
     33 H7         -0.8306   -1.5332   -0.8644 H         1 <0>         0.0967
     34 H8         -5.3934   -3.9781   -2.7738 H         1 <0>         0.4153
     35 H9         -6.6041   -3.8137   -5.1758 H         1 <0>         0.1209
     36 H10        -6.7290   -5.4818   -4.5676 H         1 <0>         0.1144
     37 H11        -8.8523   -2.7462   -6.1477 H         1 <0>         0.1327
     38 H12       -11.0839   -3.3620   -7.0327 H         1 <0>         0.1324
     39 H13       -11.9422   -5.7412   -6.4973 H         1 <0>         0.1838
     40 H14        -1.6703   -4.6071   -0.6340 H         1 <0>         0.1266
     41 H15        -2.4646   -4.5457    0.9512 H         1 <0>         0.0943
@<TRIPOS>BOND
     1    1    2 1
     2    1   29 1
     3    1   30 1
     4    1   31 1
     5    2    3 2
     6    2    4 1
     7    4    5 1
     8    5    6 1
     9    5   32 1
    10    5   33 1
    11    6   25 1
    12    6    7 2
    13    7    8 1
    14    7   26 1
    15    8   13 am
    16    8    9 1
    17    9   10 1
    18    9   11 1
    19    9   24 1
    20   11   12 1
    21   11   13 1
    22   11   15 1
    23   13   14 2
    24   15   16 am
    25   15   34 1
    26   16   17 2
    27   16   18 1
    28   18   19 1
    29   18   35 1
    30   18   36 1
    31   19   23 1
    32   19   20 2
    33   20   21 1
    34   20   37 1
    35   21   22 2
    36   21   38 1
    37   22   23 1
    38   22   39 1
    39   24   25 1
    40   25   40 1
    41   25   41 1
    42   26   27 2
    43   26   28 1
