@<TRIPOS>MOLECULE
ZINC19594535
   41    43     0     0     0
SMALL
USER_CHARGES

@<TRIPOS>ATOM
      1 C1         -0.0184    1.5028    0.0103 C.3       1 <0>        -0.0691
      2 C2          0.0021   -0.0041    0.0020 C.2       1 <0>        -0.1842
      3 C3         -1.1812   -0.6001    0.0049 C.2       1 <0>         0.0818
      4 N1         -1.2792   -2.0012   -0.0500 N.am      1 <0>        -0.5500
      5 C4         -0.1995   -2.9851    0.2230 C.3       1 <0>         0.1202
      6 H1         -0.0517   -3.2448    1.2712 H         1 <0>         0.1370
      7 C5         -1.0295   -3.9685   -0.5740 C.3       1 <0>         0.1254
      8 H2         -1.2069   -4.9156   -0.0644 H         1 <0>         0.1459
      9 C6         -2.1293   -2.9585   -0.3915 C.2       1 <0>         0.5253
     10 O1         -3.3354   -3.0033   -0.5114 O.2       1 <0>        -0.4397
     11 N2         -0.5900   -4.1339   -1.9617 N.am      1 <0>        -0.6919
     12 C7         -0.8644   -5.2752   -2.6240 C.2       1 <0>         0.5325
     13 O2         -1.4752   -6.1653   -2.0711 O.2       1 <0>        -0.5186
     14 C8         -0.4124   -5.4454   -4.0514 C.3       1 <0>         0.1220
     15 H3         -0.5514   -4.5085   -4.5908 H         1 <0>         0.1147
     16 C9          1.0454   -5.8268   -4.0746 C.ar      1 <0>        -0.1320
     17 C10         1.4198   -7.1371   -3.8412 C.ar      1 <0>        -0.0914
     18 C11         2.7555   -7.4892   -3.8615 C.ar      1 <0>        -0.1420
     19 C12         3.7215   -6.5267   -4.1167 C.ar      1 <0>         0.1088
     20 C13         3.3432   -5.2127   -4.3511 C.ar      1 <0>        -0.1389
     21 C14         2.0059   -4.8668   -4.3349 C.ar      1 <0>        -0.0830
     22 O3          5.0361   -6.8704   -4.1368 O.3       1 <0>        -0.4989
     23 N3         -1.2053   -6.5023   -4.6935 N.3       1 <0>        -0.8190
     24 S1          1.2943   -2.3448   -0.6082 S.3       1 <0>        -0.2399
     25 C15         1.3546   -0.6399   -0.0143 C.3       1 <0>        -0.0253
     26 C16        -2.4062    0.2135    0.0668 C.2       1 <0>         0.5182
     27 O4         -2.3284    1.4336    0.1152 O.co2     1 <0>        -0.6634
     28 O5         -3.5022   -0.3302    0.0698 O.co2     1 <0>        -0.6567
     29 H4          1.0042    1.8801    0.0026 H         1 <0>         0.0228
     30 H5         -0.5455    1.8639   -0.8728 H         1 <0>         0.0739
     31 H6         -0.5286    1.8543    0.9071 H         1 <0>         0.0801
     32 H7         -0.1015   -3.4221   -2.4039 H         1 <0>         0.4134
     33 H8          0.6674   -7.8860   -3.6426 H         1 <0>         0.1275
     34 H9          3.0475   -8.5127   -3.6784 H         1 <0>         0.1297
     35 H10         4.0934   -4.4616   -4.5500 H         1 <0>         0.1317
     36 H11         1.7106   -3.8448   -4.5216 H         1 <0>         0.1324
     37 H12         5.3587   -7.1411   -5.0073 H         1 <0>         0.3900
     38 H13        -0.9656   -6.5917   -5.6695 H         1 <0>         0.3512
     39 H14        -1.0932   -7.3817   -4.2116 H         1 <0>         0.3521
     40 H15         2.0130   -0.0577   -0.6589 H         1 <0>         0.1165
     41 H16         1.7594   -0.6397    0.9977 H         1 <0>         0.0908
@<TRIPOS>BOND
     1    1    2 1
     2    1   29 1
     3    1   30 1
     4    1   31 1
     5    2   25 1
     6    2    3 2
     7    3    4 1
     8    3   26 1
     9    4    9 am
    10    4    5 1
    11    5    6 1
    12    5    7 1
    13    5   24 1
    14    7    8 1
    15    7    9 1
    16    7   11 1
    17    9   10 2
    18   11   12 am
    19   11   32 1
    20   12   13 2
    21   12   14 1
    22   14   15 1
    23   14   16 1
    24   14   23 1
    25   16   21 ar
    26   16   17 ar
    27   17   18 ar
    28   17   33 1
    29   18   19 ar
    30   18   34 1
    31   19   20 ar
    32   19   22 1
    33   20   21 ar
    34   20   35 1
    35   21   36 1
    36   22   37 1
    37   23   38 1
    38   23   39 1
    39   24   25 1
    40   25   40 1
    41   25   41 1
    42   26   27 2
    43   26   28 1
