@<TRIPOS>MOLECULE
ZINC35024383
   37    39     0     0     0
SMALL
USER_CHARGES

@<TRIPOS>ATOM
      1 C1         -0.0167    1.3781    0.0096 C.ar      1 <0>        -0.1157
      2 C2          1.1709    2.0855    0.0021 C.ar      1 <0>        -0.1147
      3 C3          2.3773    1.4107   -0.0130 C.ar      1 <0>        -0.1013
      4 C4          2.3960    0.0285   -0.0201 C.ar      1 <0>        -0.1235
      5 C5          1.2084   -0.6789   -0.0117 C.ar      1 <0>        -0.1087
      6 C6          0.0021   -0.0041    0.0020 C.ar      1 <0>        -0.1171
      7 C7          3.7112   -0.7071   -0.0376 C.3       1 <0>         0.1206
      8 H1          4.5034   -0.0434    0.3089 H         1 <0>         0.1135
      9 C8          4.0144   -1.1607   -1.4423 C.2       1 <0>         0.5320
     10 O1          3.7969   -2.3081   -1.7694 O.2       1 <0>        -0.5173
     11 N1          4.5274   -0.2912   -2.3353 N.am      1 <0>        -0.6990
     12 C9          4.8222   -0.7321   -3.7009 C.3       1 <0>         0.1205
     13 H2          4.2141   -1.5837   -4.0062 H         1 <0>         0.1412
     14 C10         4.8168    0.4023   -4.7120 C.3       1 <0>         0.1335
     15 H3          4.3455    0.1855   -5.6706 H         1 <0>         0.1468
     16 N2          6.2990    0.2326   -4.6393 N.am      1 <0>        -0.5592
     17 C11         6.2993   -0.9300   -3.9588 C.2       1 <0>         0.5446
     18 O2          7.1247   -1.7723   -3.6750 O.2       1 <0>        -0.4192
     19 C12         7.2651    1.1754   -5.0560 C.2       1 <0>         0.0998
     20 C13         6.9370    2.4537   -5.1994 C.2       1 <0>        -0.1507
     21 C14         5.5995    3.0951   -5.0214 C.3       1 <0>        -0.0121
     22 S1          4.4530    2.0571   -4.0347 S.3       1 <0>        -0.2306
     23 Cl1         8.2309    3.5189   -5.6520 Cl        1 <0>        -0.0327
     24 C15         8.6399    0.7389   -5.3317 C.2       1 <0>         0.5132
     25 O3          9.4795    1.5529   -5.6930 O.co2     1 <0>        -0.6443
     26 O4          8.9461   -0.4388   -5.2003 O.co2     1 <0>        -0.6570
     27 N3          3.6299   -1.8765    0.8478 N.3       1 <0>        -0.8192
     28 H4         -0.9591    1.9053    0.0259 H         1 <0>         0.1222
     29 H5          1.1563    3.1654    0.0076 H         1 <0>         0.1249
     30 H6          3.3051    1.9634   -0.0196 H         1 <0>         0.1267
     31 H7          1.2231   -1.7588   -0.0176 H         1 <0>         0.1223
     32 H8         -0.9258   -0.5567    0.0082 H         1 <0>         0.1229
     33 H9          4.7014    0.6266   -2.0737 H         1 <0>         0.4131
     34 H10         5.7300    4.0554   -4.5225 H         1 <0>         0.1218
     35 H11         5.1538    3.2640   -6.0017 H         1 <0>         0.0997
     36 H12         3.4913   -1.5951    1.8068 H         1 <0>         0.3511
     37 H13         2.9022   -2.5076    0.5473 H         1 <0>         0.3521
@<TRIPOS>BOND
     1    1    6 ar
     2    1    2 ar
     3    1   28 1
     4    2    3 ar
     5    2   29 1
     6    3    4 ar
     7    3   30 1
     8    4    5 ar
     9    4    7 1
    10    5    6 ar
    11    5   31 1
    12    6   32 1
    13    7    8 1
    14    7    9 1
    15    7   27 1
    16    9   10 2
    17    9   11 am
    18   11   12 1
    19   11   33 1
    20   12   13 1
    21   12   17 1
    22   12   14 1
    23   14   15 1
    24   14   22 1
    25   14   16 1
    26   16   17 am
    27   16   19 1
    28   17   18 2
    29   19   20 2
    30   19   24 1
    31   20   21 1
    32   20   23 1
    33   21   22 1
    34   21   34 1
    35   21   35 1
    36   24   25 2
    37   24   26 1
    38   27   36 1
    39   27   37 1
