@<TRIPOS>MOLECULE
ZINC03830397
   50    53     0     0     0
SMALL
USER_CHARGES

@<TRIPOS>ATOM
      1 C1         -0.1533    1.4364    0.0190 C.3       1 <0>         0.0899
      2 N1         -0.0855   -0.0270    0.0064 N.pl3     1 <0>        -0.3710
      3 C2         -0.0452   -0.8388   -1.0765 C.2       1 <0>         0.2254
      4 N2          0.0109   -2.0752   -0.6311 N.2       1 <0>        -0.3352
      5 N3          0.0084   -2.0912    0.6530 N.2       1 <0>        -0.0335
      6 N4         -0.0422   -0.8892    1.1160 N.2       1 <0>        -0.0951
      7 S1         -0.0648   -0.3341   -2.7646 S.3       1 <0>         0.0281
      8 C3          0.0099   -1.8927   -3.6896 C.3       1 <0>        -0.0357
      9 C4         -0.0003   -1.6006   -5.1679 C.2       1 <0>        -0.2199
     10 C5          1.1711   -1.6774   -5.7824 C.2       1 <0>         0.1705
     11 N5          1.2689   -1.4708   -7.1692 N.am      1 <0>        -0.5570
     12 C6          0.2580   -0.8334   -8.0525 C.3       1 <0>         0.1162
     13 H1          0.2908    0.2551   -8.0985 H         1 <0>         0.1473
     14 C7          0.9493   -1.5480   -9.1938 C.3       1 <0>         0.1330
     15 H2          1.2172   -0.8987  -10.0274 H         1 <0>         0.1553
     16 C8          2.0565   -1.7538   -8.1965 C.2       1 <0>         0.5282
     17 O1          3.2256   -2.0616   -8.2951 O.2       1 <0>        -0.4487
     18 N6          0.2837   -2.7830   -9.6158 N.am      1 <0>        -0.6887
     19 C9          0.4513   -3.2437  -10.8712 C.2       1 <0>         0.5288
     20 O2          1.1531   -2.6359  -11.6516 O.2       1 <0>        -0.4965
     21 C10        -0.2334   -4.5141  -11.3053 C.3       1 <0>         0.1275
     22 H3          0.0299   -5.3207  -10.6211 H         1 <0>         0.1166
     23 C11        -1.7264   -4.3102  -11.2908 C.ar      1 <0>        -0.1332
     24 C12        -2.3592   -3.7572  -12.3883 C.ar      1 <0>        -0.0850
     25 C13        -3.7288   -3.5702  -12.3750 C.ar      1 <0>        -0.1196
     26 C14        -4.4657   -3.9367  -11.2643 C.ar      1 <0>        -0.1039
     27 C15        -3.8330   -4.4906  -10.1672 C.ar      1 <0>        -0.1131
     28 C16        -2.4640   -4.6816  -10.1821 C.ar      1 <0>        -0.0960
     29 O3          0.1881   -4.8545  -12.6276 O.3       1 <0>        -0.3298
     30 C17         0.2119   -6.1590  -12.9428 C.2       1 <0>         0.4606
     31 O4          0.5596   -6.5077  -14.0462 O.2       1 <0>        -0.4685
     32 S2         -1.3592   -1.5139   -7.5485 S.3       1 <0>        -0.2139
     33 C18        -1.3314   -1.2658   -5.7594 C.3       1 <0>        -0.0234
     34 C19         2.3828   -1.9819   -5.0043 C.2       1 <0>         0.5275
     35 O5          2.7811   -3.1356   -4.9188 O.co2     1 <0>        -0.6569
     36 O6          2.9918   -1.0814   -4.4431 O.co2     1 <0>        -0.6493
     37 H4          0.8564    1.8469    0.0195 H         1 <0>         0.0932
     38 H5         -0.6861    1.7831   -0.8665 H         1 <0>         0.1001
     39 H6         -0.6808    1.7679    0.9134 H         1 <0>         0.1022
     40 H7          0.9251   -2.4253   -3.4308 H         1 <0>         0.1184
     41 H8         -0.8529   -2.5081   -3.4349 H         1 <0>         0.1020
     42 H9         -0.2776   -3.2691   -8.9917 H         1 <0>         0.4167
     43 H10        -1.7835   -3.4708  -13.2561 H         1 <0>         0.1305
     44 H11        -4.2231   -3.1374  -13.2322 H         1 <0>         0.1257
     45 H12        -5.5356   -3.7900  -11.2537 H         1 <0>         0.1246
     46 H13        -4.4086   -4.7767   -9.2993 H         1 <0>         0.1287
     47 H14        -1.9702   -5.1178   -9.3264 H         1 <0>         0.1301
     48 H15        -0.0796   -6.8970  -12.2101 H         1 <0>         0.1308
     49 H16        -2.0933   -1.8937   -5.2975 H         1 <0>         0.1211
     50 H17        -1.5601   -0.2207   -5.5510 H         1 <0>         0.0951
@<TRIPOS>BOND
     1    1    2 1
     2    1   37 1
     3    1   38 1
     4    1   39 1
     5    2    6 1
     6    2    3 1
     7    3    4 2
     8    3    7 1
     9    4    5 1
    10    5    6 2
    11    7    8 1
    12    8    9 1
    13    8   40 1
    14    8   41 1
    15    9   33 1
    16    9   10 2
    17   10   11 1
    18   10   34 1
    19   11   16 am
    20   11   12 1
    21   12   13 1
    22   12   14 1
    23   12   32 1
    24   14   15 1
    25   14   16 1
    26   14   18 1
    27   16   17 2
    28   18   19 am
    29   18   42 1
    30   19   20 2
    31   19   21 1
    32   21   22 1
    33   21   23 1
    34   21   29 1
    35   23   28 ar
    36   23   24 ar
    37   24   25 ar
    38   24   43 1
    39   25   26 ar
    40   25   44 1
    41   26   27 ar
    42   26   45 1
    43   27   28 ar
    44   27   46 1
    45   28   47 1
    46   29   30 1
    47   30   31 2
    48   30   48 1
    49   32   33 1
    50   33   49 1
    51   33   50 1
    52   34   35 2
    53   34   36 1
