@<TRIPOS>MOLECULE
ZINC03927198
   38    40     0     0     0
SMALL
USER_CHARGES

@<TRIPOS>ATOM
      1 C1          0.0089    1.1851    0.2311 C.2       1 <0>        -0.2375
      2 C2          0.0374   -0.1490    0.1811 C.2       1 <0>        -0.0608
      3 C3          1.3181   -0.8511    0.1301 C.2       1 <0>        -0.2040
      4 C4          1.2614   -2.1959    0.1932 C.2       1 <0>         0.1570
      5 N1          2.4306   -2.9636    0.0752 N.am      1 <0>        -0.5547
      6 C5          3.8307   -2.4935    0.2335 C.3       1 <0>         0.1178
      7 H1          4.2005   -2.4617    1.2584 H         1 <0>         0.1437
      8 C6          4.2296   -3.7238   -0.5532 C.3       1 <0>         0.1261
      9 H2          5.0027   -4.3254   -0.0751 H         1 <0>         0.1480
     10 C7          2.8272   -4.1826   -0.2608 C.2       1 <0>         0.5270
     11 O1          2.2710   -5.2593   -0.3124 O.2       1 <0>        -0.4552
     12 N2          4.4940   -3.4662   -1.9709 N.am      1 <0>        -0.6749
     13 C8          5.3099   -4.2851   -2.6639 C.2       1 <0>         0.5348
     14 O2          5.7496   -5.2897   -2.1406 O.2       1 <0>        -0.5060
     15 C9          5.6706   -3.9604   -4.0640 C.2       1 <0>         0.1745
     16 N3          6.5423   -4.6918   -4.6985 N.2       1 <0>        -0.2699
     17 O3          7.0637   -5.8593   -4.0902 O.3       1 <0>        -0.3480
     18 C10         5.0413   -2.8061   -4.7410 C.2       1 <0>         0.1334
     19 C11         5.2793   -2.5665   -6.0680 C.2       1 <0>        -0.1842
     20 S1          4.2907   -1.0992   -6.3247 S.3       1 <0>         0.0132
     21 C12         3.6655   -0.9526   -4.6569 C.2       1 <0>         0.4118
     22 N4          4.2311   -1.9895   -4.0687 N.2       1 <0>        -0.5746
     23 N5          2.8093   -0.0037   -4.1237 N.pl3     1 <0>        -0.7852
     24 S2          3.9405   -0.8989   -0.6473 S.3       1 <0>        -0.2111
     25 C13         2.5358    0.0070    0.0082 C.3       1 <0>        -0.0318
     26 C14        -0.0283   -2.8608    0.3867 C.2       1 <0>         0.5318
     27 O4         -0.6609   -3.2638   -0.5816 O.co2     1 <0>        -0.6607
     28 O5         -0.4748   -3.0142    1.5168 O.co2     1 <0>        -0.6628
     29 H3          0.9322    1.7452    0.2339 H         1 <0>         0.0922
     30 H4         -0.9377    1.7041    0.2643 H         1 <0>         0.0960
     31 H5         -0.8860   -0.7092    0.1783 H         1 <0>         0.1199
     32 H6          4.0819   -2.7063   -2.4109 H         1 <0>         0.4330
     33 H7          7.7032   -6.3357   -4.6371 H         1 <0>         0.4006
     34 H8          5.8950   -3.1131   -6.7670 H         1 <0>         0.2055
     35 H9          2.4649    0.7086   -4.6848 H         1 <0>         0.4230
     36 H10         2.5540   -0.0515   -3.1892 H         1 <0>         0.4232
     37 H11         2.3121    0.8503   -0.6453 H         1 <0>         0.1181
     38 H12         2.8038    0.3854    0.9946 H         1 <0>         0.0906
@<TRIPOS>BOND
     1    1    2 2
     2    1   29 1
     3    1   30 1
     4    2    3 1
     5    2   31 1
     6    3   25 1
     7    3    4 2
     8    4    5 1
     9    4   26 1
    10    5   10 am
    11    5    6 1
    12    6    7 1
    13    6    8 1
    14    6   24 1
    15    8    9 1
    16    8   10 1
    17    8   12 1
    18   10   11 2
    19   12   13 am
    20   12   32 1
    21   13   14 2
    22   13   15 1
    23   15   16 2
    24   15   18 1
    25   16   17 1
    26   17   33 1
    27   18   22 1
    28   18   19 2
    29   19   20 1
    30   19   34 1
    31   20   21 1
    32   21   22 2
    33   21   23 1
    34   23   35 1
    35   23   36 1
    36   24   25 1
    37   25   37 1
    38   25   38 1
    39   26   27 2
    40   26   28 1
