@<TRIPOS>MOLECULE
ZINC03871924
   56    59     0     0     0
SMALL
USER_CHARGES
7-[2-(2-aminothiazol-4-yl)-2-methoxyimino-acetyl]amino-3-[(1-methyl-2,3,4,5-tetrahydropyrrol-1-yl)methyl]-8-oxo-5-thia-1-azabicyclo[4.2.0]oct-2-ene-2-carboxylic acid
@<TRIPOS>ATOM
      1 C1         -0.0520    2.6184   -0.4874 C.3       1 <0>        -0.0495
      2 N1         -1.3203    3.3269   -0.7055 N.4       1 <0>        -0.2544
      3 C2         -1.1636    4.7485   -0.3307 C.3       1 <0>        -0.0195
      4 C3         -0.8429    5.4752   -1.6606 C.3       1 <0>        -0.1393
      5 C4         -1.7393    4.7026   -2.6639 C.3       1 <0>        -0.1392
      6 C5         -1.6899    3.2552   -2.1310 C.3       1 <0>        -0.0052
      7 C6         -2.3768    2.7140    0.1107 C.3       1 <0>         0.0495
      8 C7         -1.9022    2.5892    1.5355 C.2       1 <0>        -0.2702
      9 C8         -1.6470    1.3581    1.9550 C.2       1 <0>         0.2159
     10 N2         -1.1466    1.1424    3.2467 N.am      1 <0>        -0.5626
     11 C9         -1.1872    2.0821    4.3997 C.3       1 <0>         0.1156
     12 H1         -2.1354    2.1055    4.9368 H         1 <0>         0.1512
     13 C10        -0.0934    1.2875    5.0889 C.3       1 <0>         0.1455
     14 H2         -0.3604    0.9203    6.0798 H         1 <0>         0.1700
     15 C11        -0.3857    0.3102    3.9481 C.2       1 <0>         0.5185
     16 O1         -0.0451   -0.8376    3.7542 O.2       1 <0>        -0.4410
     17 N3          1.2313    1.9108    5.0363 N.am      1 <0>        -0.6905
     18 C12         2.1500    1.6219    5.9792 C.2       1 <0>         0.5852
     19 O2          1.8794    0.8445    6.8729 O.2       1 <0>        -0.4585
     20 C13         3.4900    2.2525    5.9260 C.2       1 <0>         0.1887
     21 N4          3.7800    3.0861    4.9677 N.2       1 <0>        -0.2907
     22 O3          5.0059    3.7944    4.9924 O.3       1 <0>        -0.2139
     23 C14         5.1922    4.6727    3.8806 C.3       1 <0>         0.0306
     24 C15         4.4978    1.9355    6.9605 C.2       1 <0>         0.0888
     25 C16         5.7897    2.3694    6.8258 C.2       1 <0>        -0.1821
     26 S1          6.5197    1.7124    8.3197 S.3       1 <0>        -0.0117
     27 C17         5.0476    0.9338    8.9680 C.2       1 <0>         0.3869
     28 N5          4.1591    1.2290    8.0381 N.2       1 <0>        -0.5339
     29 N6          4.8817    0.2151   10.1399 N.pl3     1 <0>        -0.7941
     30 S2         -0.6809    3.7055    3.7365 S.3       1 <0>        -0.2101
     31 C18        -1.7843    3.8684    2.2987 C.3       1 <0>        -0.0502
     32 C19        -1.8855    0.2125    1.0586 C.2       1 <0>         0.4897
     33 O4         -2.6287   -0.6847    1.4039 O.co2     1 <0>        -0.5696
     34 H3         -0.1267    1.6077   -0.8886 H         1 <0>         0.1591
     35 H4          0.7534    3.1513   -0.9928 H         1 <0>         0.0982
     36 H5          0.1584    2.5706    0.5810 H         1 <0>         0.1099
     37 H6         -2.0895    5.1322    0.0977 H         1 <0>         0.1264
     38 H7         -0.3407    4.8666    0.3742 H         1 <0>         0.1291
     39 H8          0.2110    5.3709   -1.9183 H         1 <0>         0.0943
     40 H9         -1.1285    6.5259   -1.6108 H         1 <0>         0.1097
     41 H10        -1.3259    4.7568   -3.6710 H         1 <0>         0.1065
     42 H11        -2.7599    5.0850   -2.6466 H         1 <0>         0.0942
     43 H12        -0.9417    2.6833   -2.6798 H         1 <0>         0.1292
     44 H13        -2.6687    2.7874   -2.2372 H         1 <0>         0.1265
     45 H14        -3.2693    3.3389    0.0784 H         1 <0>         0.1156
     46 H15        -2.6115    1.7247   -0.2821 H         1 <0>         0.1563
     47 H16         1.4473    2.5315    4.3228 H         1 <0>         0.4193
     48 H17         5.1720    4.0968    2.9553 H         1 <0>         0.0562
     49 H18         4.3929    5.4136    3.8649 H         1 <0>         0.0566
     50 H19         6.1538    5.1775    3.9735 H         1 <0>         0.1038
     51 H20         6.2426    2.9492    6.0352 H         1 <0>         0.2158
     52 H21         5.6344    0.0799   10.7366 H         1 <0>         0.4213
     53 H22         4.0128   -0.1531   10.3642 H         1 <0>         0.4206
     54 H23        -1.3926    4.6410    1.6370 H         1 <0>         0.1221
     55 H24        -2.7740    4.1678    2.6436 H         1 <0>         0.1034
     56 O5         -1.2793    0.1601   -0.1439 O.co2     1 <0>        -0.7240
@<TRIPOS>BOND
     1    1    2 1
     2    1   34 1
     3    1   35 1
     4    1   36 1
     5    2    6 1
     6    2    3 1
     7    2    7 1
     8    3    4 1
     9    3   37 1
    10    3   38 1
    11    4    5 1
    12    4   39 1
    13    4   40 1
    14    5    6 1
    15    5   41 1
    16    5   42 1
    17    6   43 1
    18    6   44 1
    19    7    8 1
    20    7   45 1
    21    7   46 1
    22    8   31 1
    23    8    9 2
    24    9   10 1
    25    9   32 1
    26   10   15 am
    27   10   11 1
    28   11   12 1
    29   11   13 1
    30   11   30 1
    31   13   14 1
    32   13   15 1
    33   13   17 1
    34   15   16 2
    35   17   18 am
    36   17   47 1
    37   18   19 2
    38   18   20 1
    39   20   21 2
    40   20   24 1
    41   21   22 1
    42   22   23 1
    43   23   48 1
    44   23   49 1
    45   23   50 1
    46   24   28 1
    47   24   25 2
    48   25   26 1
    49   25   51 1
    50   26   27 1
    51   27   28 2
    52   27   29 1
    53   29   52 1
    54   29   53 1
    55   30   31 1
    56   31   54 1
    57   31   55 1
    58   32   33 2
    59   32   56 1
