@<TRIPOS>MOLECULE
ZINC03830449
   44    46     0     0     0
SMALL
USER_CHARGES

@<TRIPOS>ATOM
      1 C1          0.0251    1.4314   -0.1412 C.3       1 <0>         0.0237
      2 O1          0.0348    0.0027   -0.1111 O.3       1 <0>        -0.3558
      3 C2         -1.2665   -0.5866   -0.0716 C.3       1 <0>         0.3139
      4 C3         -1.2359   -2.1003    0.0595 C.3       1 <0>         0.1426
      5 H1         -0.2567   -2.5687   -0.0398 H         1 <0>         0.1424
      6 N1         -2.0805   -2.0429   -1.1711 N.am      1 <0>        -0.5270
      7 C4         -1.8939   -0.7411   -1.4390 C.2       1 <0>         0.5461
      8 O2         -2.1282   -0.0053   -2.3744 O.2       1 <0>        -0.4347
      9 C5         -2.8939   -3.0824   -1.6690 C.2       1 <0>         0.1128
     10 C6         -3.2747   -4.0735   -0.8778 C.2       1 <0>        -0.1826
     11 C7         -2.9169   -4.3113    0.5532 C.3       1 <0>         0.0033
     12 S1         -2.2899   -2.7964    1.3764 S.3       1 <0>        -0.2355
     13 C8         -4.1893   -5.0955   -1.5025 C.3       1 <0>         0.1615
     14 O3         -4.6054   -6.0334   -0.5079 O.3       1 <0>        -0.3839
     15 C9         -5.3477   -7.0767   -0.9241 C.2       1 <0>         0.6472
     16 O4         -5.6343   -7.1878   -2.0997 O.2       1 <0>        -0.5638
     17 N2         -5.7728   -7.9979   -0.0369 N.am      1 <0>        -0.8355
     18 C10        -3.3225   -3.0649   -3.0770 C.2       1 <0>         0.5172
     19 O5         -3.9378   -4.0152   -3.5410 O.co2     1 <0>        -0.6607
     20 O6         -3.0634   -2.1001   -3.7834 O.co2     1 <0>        -0.6508
     21 N3         -2.1493    0.0639    0.8999 N.am      1 <0>        -0.7292
     22 C11        -3.4624   -0.2386    0.9253 C.2       1 <0>         0.5103
     23 O7         -3.9132   -1.0494    0.1441 O.2       1 <0>        -0.4579
     24 C12        -4.3706    0.4305    1.9246 C.3       1 <0>        -0.0442
     25 C13        -5.7774   -0.0789    1.7448 C.2       1 <0>        -0.1240
     26 C14        -6.3848   -1.1358    2.3375 C.2       1 <0>        -0.1397
     27 C15        -7.6990   -1.4200    2.0169 C.2       1 <0>        -0.1543
     28 C16        -8.3416   -0.6333    1.1193 C.2       1 <0>        -0.1765
     29 S2         -7.0789    0.5577    0.7017 S.3       1 <0>         0.0472
     30 H2          1.0500    1.8011   -0.1703 H         1 <0>         0.0983
     31 H3         -0.5096    1.7725   -1.0277 H         1 <0>         0.0594
     32 H4         -0.4726    1.8102    0.7515 H         1 <0>         0.0468
     33 H5         -3.7992   -4.6671    1.0852 H         1 <0>         0.1189
     34 H6         -2.1419   -5.0761    0.6028 H         1 <0>         0.0873
     35 H7         -5.0637   -4.5947   -1.9180 H         1 <0>         0.0924
     36 H8         -3.6590   -5.6200   -2.2973 H         1 <0>         0.0959
     37 H9         -5.5440   -7.9092    0.9016 H         1 <0>         0.4028
     38 H10        -6.3075   -8.7496   -0.3368 H         1 <0>         0.4200
     39 H11        -1.7888    0.7123    1.5247 H         1 <0>         0.4041
     40 H12        -4.0287    0.2046    2.9346 H         1 <0>         0.1155
     41 H13        -4.3518    1.5090    1.7674 H         1 <0>         0.1047
     42 H14        -5.8499   -1.7469    3.0493 H         1 <0>         0.1296
     43 H15        -8.2062   -2.2564    2.4746 H         1 <0>         0.1299
     44 H16        -9.3555   -0.7058    0.7545 H         1 <0>         0.1824
@<TRIPOS>BOND
     1    1    2 1
     2    1   30 1
     3    1   31 1
     4    1   32 1
     5    2    3 1
     6    3    7 1
     7    3    4 1
     8    3   21 1
     9    4    5 1
    10    4   12 1
    11    4    6 1
    12    6    7 am
    13    6    9 1
    14    7    8 2
    15    9   10 2
    16    9   18 1
    17   10   11 1
    18   10   13 1
    19   11   12 1
    20   11   33 1
    21   11   34 1
    22   13   14 1
    23   13   35 1
    24   13   36 1
    25   14   15 1
    26   15   16 2
    27   15   17 am
    28   17   37 1
    29   17   38 1
    30   18   19 2
    31   18   20 1
    32   21   22 am
    33   21   39 1
    34   22   23 2
    35   22   24 1
    36   24   25 1
    37   24   40 1
    38   24   41 1
    39   25   29 1
    40   25   26 2
    41   26   27 1
    42   26   42 1
    43   27   28 2
    44   27   43 1
    45   28   29 1
    46   28   44 1
