@<TRIPOS>MOLECULE
ZINC03830441
   51    54     0     0     0
SMALL
USER_CHARGES
7-[[4-(carbamoyl-carboxy-methylene)-1,3-dithietan-2-yl]carbonylamino]-7-methoxy-3-[(1-methyltetrazol-5-yl)sulfanylmethyl]-8-oxo-5-thia-1-azabicyclo[4.2.0]oct-2-ene-2-carboxylic acid
@<TRIPOS>ATOM
      1 C1          1.6562    7.4986    2.4285 C.3       1 <0>         0.0951
      2 N1          0.9453    7.2457    1.1727 N.pl3     1 <0>        -0.3852
      3 C2          0.7941    6.0591    0.5382 C.2       1 <0>         0.2364
      4 N2          0.0946    6.2899   -0.5517 N.2       1 <0>        -0.3351
      5 N3         -0.2087    7.5349   -0.6363 N.2       1 <0>        -0.0365
      6 N4          0.2732    8.1827    0.3686 N.2       1 <0>        -0.1149
      7 S1          1.4226    4.5008    1.0685 S.3       1 <0>         0.0773
      8 C3          0.8177    3.4454   -0.2717 C.3       1 <0>        -0.0451
      9 C4          1.2481    2.0226   -0.0239 C.2       1 <0>        -0.1774
     10 C5          0.4259    1.2877    0.7108 C.2       1 <0>         0.1783
     11 N5          0.7074   -0.0616    0.9575 N.am      1 <0>        -0.5228
     12 C6          2.0172   -0.7539    0.7988 C.3       1 <0>         0.1110
     13 H1          2.7072   -0.6269    1.6330 H         1 <0>         0.1388
     14 C7          1.2804   -2.0809    0.7651 C.3       1 <0>         0.3264
     15 C8          0.1370   -1.2227    1.2539 C.2       1 <0>         0.5289
     16 O1         -0.9354   -1.5001    1.7481 O.2       1 <0>        -0.4529
     17 N6          1.0918   -2.6351   -0.5779 N.am      1 <0>        -0.7106
     18 C9          0.4019   -1.9394   -1.5033 C.2       1 <0>         0.5608
     19 O2         -0.0628   -0.8544   -1.2243 O.2       1 <0>        -0.4436
     20 C10         0.2080   -2.5095   -2.8847 C.3       1 <0>        -0.1126
     21 S2          1.7533   -3.0659   -3.6715 S.3       1 <0>        -0.1261
     22 C11         1.1070   -2.3594   -5.1681 C.2       1 <0>        -0.0935
     23 C12         1.2922   -2.5869   -6.5389 C.2       1 <0>        -0.0711
     24 C13         2.1088   -3.7126   -6.9892 C.2       1 <0>         0.5563
     25 O3          2.3737   -3.8383   -8.1710 O.2       1 <0>        -0.4833
     26 N7          2.5685   -4.6114   -6.0963 N.am      1 <0>        -0.8636
     27 C14         0.6882   -1.7262   -7.4874 C.2       1 <0>         0.4852
     28 O4         -0.0673   -0.8469   -7.1169 O.co2     1 <0>        -0.6105
     29 S3          0.1273   -1.2463   -4.1941 S.3       1 <0>         0.0683
     30 O5          1.7473   -3.0404    1.7155 O.3       1 <0>        -0.3416
     31 C15         1.1256   -4.3219    1.6012 C.3       1 <0>         0.0222
     32 S4          2.6885   -0.1901   -0.8021 S.3       1 <0>        -0.2010
     33 C16         2.5488    1.6166   -0.6375 C.3       1 <0>        -0.0238
     34 C17        -0.7973    1.8934    1.2674 C.2       1 <0>         0.4865
     35 O6         -1.7304    1.1872    1.5945 O.co2     1 <0>        -0.5924
     36 H2          2.6993    7.7317    2.2149 H         1 <0>         0.0845
     37 H3          1.1941    8.3403    2.9444 H         1 <0>         0.0964
     38 H4          1.6040    6.6120    3.0604 H         1 <0>         0.0985
     39 H5          1.2303    3.7899   -1.2199 H         1 <0>         0.0809
     40 H6         -0.2706    3.4944   -0.3098 H         1 <0>         0.1479
     41 H7          1.4635   -3.5029   -0.8010 H         1 <0>         0.4086
     42 H8         -0.5972   -3.2427   -2.9324 H         1 <0>         0.1648
     43 H9          2.2926   -4.5575   -5.1679 H         1 <0>         0.3914
     44 H10         3.1752   -5.3122   -6.3820 H         1 <0>         0.3949
     45 H11         1.5342   -4.9927    2.3569 H         1 <0>         0.1010
     46 H12         0.0507   -4.2188    1.7498 H         1 <0>         0.0606
     47 H13         1.3176   -4.7317    0.6096 H         1 <0>         0.0490
     48 H14         3.3645    1.9799   -0.0124 H         1 <0>         0.0928
     49 H15         2.6304    2.0700   -1.6254 H         1 <0>         0.1213
     50 O7          0.9502   -1.8810   -8.8020 O.co2     1 <0>        -0.7115
     51 O8         -0.8806    3.2306    1.4136 O.co2     1 <0>        -0.7086
@<TRIPOS>BOND
     1    1    2 1
     2    1   36 1
     3    1   37 1
     4    1   38 1
     5    2    6 1
     6    2    3 1
     7    3    4 2
     8    3    7 1
     9    4    5 1
    10    5    6 2
    11    7    8 1
    12    8    9 1
    13    8   39 1
    14    8   40 1
    15    9   33 1
    16    9   10 2
    17   10   11 1
    18   10   34 1
    19   11   15 am
    20   11   12 1
    21   12   13 1
    22   12   14 1
    23   12   32 1
    24   14   15 1
    25   14   17 1
    26   14   30 1
    27   15   16 2
    28   17   18 am
    29   17   41 1
    30   18   19 2
    31   18   20 1
    32   20   29 1
    33   20   21 1
    34   20   42 1
    35   21   22 1
    36   22   23 2
    37   22   29 1
    38   23   24 1
    39   23   27 1
    40   24   25 2
    41   24   26 am
    42   26   43 1
    43   26   44 1
    44   27   28 2
    45   27   50 1
    46   30   31 1
    47   31   45 1
    48   31   46 1
    49   31   47 1
    50   32   33 1
    51   33   48 1
    52   33   49 1
    53   34   35 2
    54   34   51 1
