@<TRIPOS>MOLECULE
ZINC03830428
   51    54     0     0     0
SMALL
USER_CHARGES
8-(2-hydroxy-2-phenyl-acetyl)amino-7-oxo-4-[[1-(sulfomethyl)tetrazol-5-yl]sulfanylmethyl]-2-thia-6-azabicyclo[4.2.0]oct-4-ene-5-carboxylic acid
@<TRIPOS>ATOM
      1 C1         -1.5576   12.4747    4.3391 C.ar      1 <0>        -0.1139
      2 C2         -2.2597   11.3976    3.8314 C.ar      1 <0>        -0.1100
      3 C3         -2.5259   11.3224    2.4771 C.ar      1 <0>        -0.1002
      4 C4         -2.0900   12.3244    1.6303 C.ar      1 <0>        -0.1206
      5 C5         -1.3833   13.3989    2.1372 C.ar      1 <0>        -0.1047
      6 C6         -1.1217   13.4767    3.4924 C.ar      1 <0>        -0.1170
      7 C7         -2.3798   12.2422    0.1537 C.3       1 <0>         0.1389
      8 H1         -3.2652   11.6276   -0.0091 H         1 <0>         0.1375
      9 C8         -1.2023   11.6248   -0.5557 C.2       1 <0>         0.4974
     10 O1         -0.5623   12.2794   -1.3512 O.2       1 <0>        -0.5217
     11 N1         -0.8604   10.3453   -0.3062 N.am      1 <0>        -0.6915
     12 C9          0.2843    9.7451   -0.9959 C.3       1 <0>         0.1271
     13 H2          1.0045   10.4843   -1.3465 H         1 <0>         0.1507
     14 C10         0.9185    8.5860   -0.2345 C.3       1 <0>         0.1280
     15 H3          2.0083    8.5766   -0.2137 H         1 <0>         0.1504
     16 N2          0.2546    7.7089   -1.2508 N.am      1 <0>        -0.5601
     17 C11        -0.1065    8.7257   -2.0525 C.2       1 <0>         0.5325
     18 O2         -0.5629    8.8000   -3.1738 O.2       1 <0>        -0.4468
     19 C12         0.0280    6.3269   -1.1387 C.2       1 <0>         0.1804
     20 C13         0.0280    5.7454    0.0512 C.2       1 <0>        -0.2091
     21 C14         0.3077    6.3583    1.3846 C.3       1 <0>        -0.0125
     22 S1          0.1259    8.1687    1.3551 S.3       1 <0>        -0.2345
     23 C15        -0.2898    4.2723    0.0607 C.3       1 <0>        -0.0570
     24 S2          1.2419    3.3258    0.2454 S.3       1 <0>         0.0510
     25 C16         0.5935    1.6876    0.2256 C.2       1 <0>         0.2150
     26 N3         -0.6719    1.3492    0.1047 N.2       1 <0>        -0.3338
     27 N4         -0.8001    0.0717    0.1282 N.2       1 <0>        -0.0453
     28 N5          0.3514   -0.4918    0.2634 N.2       1 <0>        -0.0881
     29 N6          1.3040    0.5399    0.3320 N.pl3     1 <0>        -0.3353
     30 C17         2.7544    0.4026    0.4858 C.3       1 <0>        -0.4355
     31 S3          3.5286    0.2962   -1.1513 S.o2      1 <0>         2.6162
     32 O3          3.1643   -0.9214   -1.7868 O.2       1 <0>        -1.0290
     33 O4          3.4019    1.5360   -1.8341 O.2       1 <0>        -1.0027
     34 C18        -0.2157    5.5220   -2.3493 C.2       1 <0>         0.4932
     35 O5          0.7206    5.0534   -2.9659 O.co2     1 <0>        -0.5810
     36 O6         -2.6105   13.5555   -0.3602 O.3       1 <0>        -0.5263
     37 H4         -1.3493   12.5333    5.3972 H         1 <0>         0.1223
     38 H5         -2.6000   10.6146    4.4929 H         1 <0>         0.1267
     39 H6         -3.0742   10.4807    2.0804 H         1 <0>         0.1289
     40 H7         -1.0389   14.1795    1.4751 H         1 <0>         0.1211
     41 H8         -0.5728   14.3180    3.8890 H         1 <0>         0.1229
     42 H9         -1.3723    9.8217    0.3300 H         1 <0>         0.4159
     43 H10        -0.3852    5.9445    2.1172 H         1 <0>         0.1211
     44 H11         1.3268    6.1105    1.6817 H         1 <0>         0.0996
     45 H12        -0.7749    3.9992   -0.8764 H         1 <0>         0.1273
     46 H13        -0.9570    4.0499    0.8935 H         1 <0>         0.1016
     47 H14         3.1470    1.2692    1.0178 H         1 <0>         0.1395
     48 H15         2.9757   -0.5022    1.0519 H         1 <0>         0.1443
     49 H16        -1.8625   14.1582   -0.2493 H         1 <0>         0.3816
     50 O7          5.0182    0.1576   -0.8712 O.3       1 <0>        -1.0649
     51 O8         -1.4769    5.3057   -2.7722 O.co2     1 <0>        -0.7295
@<TRIPOS>BOND
     1    1    6 ar
     2    1    2 ar
     3    1   37 1
     4    2    3 ar
     5    2   38 1
     6    3    4 ar
     7    3   39 1
     8    4    5 ar
     9    4    7 1
    10    5    6 ar
    11    5   40 1
    12    6   41 1
    13    7    8 1
    14    7    9 1
    15    7   36 1
    16    9   10 2
    17    9   11 am
    18   11   12 1
    19   11   42 1
    20   12   13 1
    21   12   17 1
    22   12   14 1
    23   14   15 1
    24   14   22 1
    25   14   16 1
    26   16   17 am
    27   16   19 1
    28   17   18 2
    29   19   20 2
    30   19   34 1
    31   20   21 1
    32   20   23 1
    33   21   22 1
    34   21   43 1
    35   21   44 1
    36   23   24 1
    37   23   45 1
    38   23   46 1
    39   24   25 1
    40   25   29 1
    41   25   26 2
    42   26   27 1
    43   27   28 2
    44   28   29 1
    45   29   30 1
    46   30   31 1
    47   30   47 1
    48   30   48 1
    49   31   32 2
    50   31   33 2
    51   31   50 1
    52   34   35 2
    53   34   51 1
    54   36   49 1
