@<TRIPOS>MOLECULE
ZINC20444127
   45    47     0     0     0
SMALL
USER_CHARGES

@<TRIPOS>ATOM
      1 C1         -0.8323    0.0493   -2.2735 C.3       1 <0>        -0.1093
      2 C2         -0.3837   -0.6937   -1.0415 C.2       1 <0>        -0.2043
      3 C3         -1.0955   -0.6096    0.0852 C.2       1 <0>        -0.0247
      4 C4         -2.3726    0.1005    0.0912 C.2       1 <0>        -0.1574
      5 C5         -3.4702   -0.6525    0.3010 C.2       1 <0>         0.1020
      6 N1         -4.7357   -0.0534    0.4008 N.am      1 <0>        -0.5501
      7 C6         -5.1179    1.3119   -0.0424 C.3       1 <0>         0.1173
      8 H1         -5.3838    1.4047   -1.0954 H         1 <0>         0.1369
      9 C7         -6.2915    1.1852    0.9054 C.3       1 <0>         0.1230
     10 H2         -7.2564    1.4084    0.4501 H         1 <0>         0.1463
     11 C8         -5.9389   -0.2771    0.9093 C.2       1 <0>         0.5260
     12 O1         -6.5310   -1.2799    1.2485 O.2       1 <0>        -0.4383
     13 N2         -6.0935    1.8542    2.1936 N.am      1 <0>        -0.6878
     14 C9         -7.1585    2.2633    2.9112 C.2       1 <0>         0.4921
     15 O2         -8.2807    2.0777    2.4905 O.2       1 <0>        -0.5333
     16 C10        -6.9548    2.9515    4.2363 C.3       1 <0>         0.1203
     17 H3         -6.1442    2.4641    4.7780 H         1 <0>         0.1157
     18 C11        -6.6041    4.3983    4.0024 C.ar      1 <0>        -0.0834
     19 C12        -7.6020    5.3142    3.7247 C.ar      1 <0>        -0.0792
     20 C13        -7.2830    6.6409    3.5094 C.ar      1 <0>        -0.1445
     21 C14        -5.9602    7.0542    3.5724 C.ar      1 <0>         0.1072
     22 C15        -4.9608    6.1334    3.8516 C.ar      1 <0>        -0.1397
     23 C16        -5.2855    4.8087    4.0713 C.ar      1 <0>        -0.0857
     24 O3         -5.6438    8.3587    3.3606 O.3       1 <0>        -0.4998
     25 N3         -8.1907    2.8688    5.0261 N.3       1 <0>        -0.8130
     26 S1         -3.7677    2.4206    0.4851 S.3       1 <0>        -0.2261
     27 C17        -2.3068    1.5773   -0.1301 C.3       1 <0>        -0.0317
     28 C18        -3.3420   -2.1055    0.4253 C.2       1 <0>         0.5159
     29 O4         -2.2580   -2.6430    0.2356 O.co2     1 <0>        -0.6499
     30 O5         -4.3188   -2.7835    0.7190 O.co2     1 <0>        -0.6554
     31 H4         -0.1875   -0.2144   -3.1118 H         1 <0>         0.0487
     32 H5         -1.8616   -0.2227   -2.5072 H         1 <0>         0.0519
     33 H6         -0.7723    1.1225   -2.0925 H         1 <0>         0.0540
     34 H7          0.5135   -1.2943   -1.0699 H         1 <0>         0.1044
     35 H8         -0.7272   -1.0663    0.9919 H         1 <0>         0.1111
     36 H9         -5.1959    2.0027    2.5301 H         1 <0>         0.4150
     37 H10        -8.6317    4.9920    3.6758 H         1 <0>         0.1270
     38 H11        -8.0628    7.3558    3.2919 H         1 <0>         0.1289
     39 H12        -3.9303    6.4526    3.9012 H         1 <0>         0.1312
     40 H13        -4.5084    4.0923    4.2931 H         1 <0>         0.1313
     41 H14        -5.6442    8.8988    4.1627 H         1 <0>         0.3896
     42 H15        -8.9578    3.3139    4.5449 H         1 <0>         0.3504
     43 H16        -8.4124    1.9105    5.2514 H         1 <0>         0.3522
     44 H17        -1.4230    1.9724    0.3708 H         1 <0>         0.1187
     45 H18        -2.2247    1.7728   -1.1992 H         1 <0>         0.0966
@<TRIPOS>BOND
     1    1    2 1
     2    1   31 1
     3    1   32 1
     4    1   33 1
     5    2    3 2
     6    2   34 1
     7    3    4 1
     8    3   35 1
     9    4   27 1
    10    4    5 2
    11    5    6 1
    12    5   28 1
    13    6   11 am
    14    6    7 1
    15    7    8 1
    16    7    9 1
    17    7   26 1
    18    9   10 1
    19    9   11 1
    20    9   13 1
    21   11   12 2
    22   13   14 am
    23   13   36 1
    24   14   15 2
    25   14   16 1
    26   16   17 1
    27   16   18 1
    28   16   25 1
    29   18   23 ar
    30   18   19 ar
    31   19   20 ar
    32   19   37 1
    33   20   21 ar
    34   20   38 1
    35   21   22 ar
    36   21   24 1
    37   22   23 ar
    38   22   39 1
    39   23   40 1
    40   24   41 1
    41   25   42 1
    42   25   43 1
    43   26   27 1
    44   27   44 1
    45   27   45 1
    46   28   29 2
    47   28   30 1
