@<TRIPOS>MOLECULE
ZINC01542915
   55    58     0     0     0
SMALL
USER_CHARGES
4-[(4-carbamoyl-1-pyridyl)methyl]-7-oxo-8-(2-phenyl-2-sulfo-acetyl)amino-2-thia-6-azabicyclo[4.2.0]oct-4-ene-5-carboxylic acid
@<TRIPOS>ATOM
      1 C1         -4.6485    3.7956    1.0136 C.ar      1 <0>        -0.1239
      2 C2         -3.8318    4.7098    1.6524 C.ar      1 <0>        -0.1369
      3 C3         -2.5864    5.0067    1.1311 C.ar      1 <0>        -0.1101
      4 C4         -2.1576    4.3889   -0.0288 C.ar      1 <0>        -0.0458
      5 C5         -2.9764    3.4786   -0.6705 C.ar      1 <0>        -0.0737
      6 C6         -4.2200    3.1785   -0.1468 C.ar      1 <0>        -0.1272
      7 C7         -0.7999    4.7125   -0.5971 C.3       1 <0>        -0.6210
      8 H1         -0.3061    5.4482    0.0378 H         1 <0>         0.1273
      9 C8          0.0331    3.4579   -0.6535 C.2       1 <0>         0.5633
     10 O1         -0.4915    2.3922   -0.8986 O.2       1 <0>        -0.4982
     11 N1          1.3619    3.5210   -0.4372 N.am      1 <0>        -0.7130
     12 C9          2.1726    2.3022   -0.4979 C.3       1 <0>         0.1375
     13 H2          1.5985    1.4003   -0.2857 H         1 <0>         0.1611
     14 C10         3.4776    2.3956    0.2856 C.3       1 <0>         0.1329
     15 H3          3.7080    3.3766    0.7010 H         1 <0>         0.1439
     16 N2          4.1442    2.0543   -1.0114 N.am      1 <0>        -0.5756
     17 C11         3.0275    2.2004   -1.7498 C.2       1 <0>         0.5288
     18 O2          2.7953    2.2365   -2.9397 O.2       1 <0>        -0.3972
     19 C12         5.4571    1.5829   -1.1765 C.2       1 <0>         0.2054
     20 C13         6.0999    1.0288   -0.1598 C.2       1 <0>        -0.2702
     21 C14         5.6355    0.8558    1.2495 C.3       1 <0>        -0.0307
     22 S1          3.8263    0.9879    1.3929 S.3       1 <0>        -0.1982
     23 C15         7.4798    0.5050   -0.4641 C.3       1 <0>         0.0729
     24 N3          8.4691    1.2534    0.3152 N.ar      1 <0>        -0.2993
     25 C16         8.9314    2.3910   -0.1638 C.ar      1 <0>         0.1481
     26 C17         9.8609    3.1318    0.5404 C.ar      1 <0>        -0.1102
     27 C18        10.3179    2.6520    1.7716 C.ar      1 <0>        -0.0354
     28 C19         9.8045    1.4382    2.2384 C.ar      1 <0>        -0.0853
     29 C20         8.8732    0.7655    1.4712 C.ar      1 <0>         0.1078
     30 C21        11.3187    3.4087    2.5595 C.2       1 <0>         0.5602
     31 O3         11.7045    2.9759    3.6274 O.2       1 <0>        -0.5115
     32 N4         11.8012    4.5769    2.0918 N.am      1 <0>        -0.8354
     33 C22         6.1220    1.7060   -2.4863 C.2       1 <0>         0.4898
     34 O4          5.5139    1.4392   -3.5038 O.co2     1 <0>        -0.5458
     35 S2         -0.9899    5.3878   -2.2700 S.o2      1 <0>         2.6262
     36 O5         -1.9162    6.4654   -2.2605 O.2       1 <0>        -1.0305
     37 O6          0.2819    5.5312   -2.8873 O.2       1 <0>        -1.0304
     38 H4         -5.6212    3.5631    1.4213 H         1 <0>         0.1153
     39 H5         -4.1666    5.1919    2.5590 H         1 <0>         0.1162
     40 H6         -1.9484    5.7209    1.6302 H         1 <0>         0.1158
     41 H7         -2.6431    2.9992   -1.5791 H         1 <0>         0.1612
     42 H8         -4.8579    2.4640   -0.6457 H         1 <0>         0.1208
     43 H9          1.7815    4.3733   -0.2412 H         1 <0>         0.4075
     44 H10         5.9487   -0.1248    1.6080 H         1 <0>         0.1152
     45 H11         6.0960    1.6236    1.8712 H         1 <0>         0.0836
     46 H12         7.5336   -0.5514   -0.2009 H         1 <0>         0.1185
     47 H13         7.6879    0.6256   -1.5272 H         1 <0>         0.1844
     48 H14         8.5755    2.7512   -1.1178 H         1 <0>         0.2437
     49 H15        10.2321    4.0652    0.1439 H         1 <0>         0.1795
     50 H16        10.1313    1.0324    3.1844 H         1 <0>         0.1868
     51 H17         8.4710   -0.1730    1.8231 H         1 <0>         0.2039
     52 H18        11.4932    4.9224    1.2393 H         1 <0>         0.4073
     53 H19        12.4564    5.0723    2.6077 H         1 <0>         0.4178
     54 O7          7.4046    2.1144   -2.5551 O.co2     1 <0>        -0.7360
     55 O8         -1.6831    4.2869   -3.0599 O.3       1 <0>        -1.0414
@<TRIPOS>BOND
     1    1    6 ar
     2    1    2 ar
     3    1   38 1
     4    2    3 ar
     5    2   39 1
     6    3    4 ar
     7    3   40 1
     8    4    5 ar
     9    4    7 1
    10    5    6 ar
    11    5   41 1
    12    6   42 1
    13    7    8 1
    14    7    9 1
    15    7   35 1
    16    9   10 2
    17    9   11 am
    18   11   12 1
    19   11   43 1
    20   12   13 1
    21   12   17 1
    22   12   14 1
    23   14   15 1
    24   14   22 1
    25   14   16 1
    26   16   17 am
    27   16   19 1
    28   17   18 2
    29   19   20 2
    30   19   33 1
    31   20   21 1
    32   20   23 1
    33   21   22 1
    34   21   44 1
    35   21   45 1
    36   23   24 1
    37   23   46 1
    38   23   47 1
    39   24   29 ar
    40   24   25 ar
    41   25   26 ar
    42   25   48 1
    43   26   27 ar
    44   26   49 1
    45   27   28 ar
    46   27   30 1
    47   28   29 ar
    48   28   50 1
    49   29   51 1
    50   30   31 2
    51   30   32 am
    52   32   52 1
    53   32   53 1
    54   33   34 2
    55   33   54 1
    56   35   36 2
    57   35   37 2
    58   35   55 1
