@<TRIPOS>MOLECULE
ZINC03871967
   39    41     0     0     0
SMALL
USER_CHARGES

@<TRIPOS>ATOM
      1 C1         -0.4025    3.2207   -1.1913 C.2       1 <0>        -0.2387
      2 C2          0.9322    3.4970   -1.2875 C.2       1 <0>         0.1736
      3 N1          1.4353    3.8789   -2.4592 N.2       1 <0>        -0.5555
      4 C3          0.6671    3.9947   -3.5268 C.2       1 <0>         0.3859
      5 S1         -0.9297    3.5319   -2.8710 S.3       1 <0>        -0.0516
      6 N2          1.0085    4.3748   -4.8145 N.pl3     1 <0>        -0.8006
      7 C4          1.8107    3.3730   -0.0993 C.2       1 <0>        -0.1549
      8 C5          1.2800    3.0938    1.1014 C.2       1 <0>         0.0043
      9 C6          2.1532    3.0938    2.3296 C.3       1 <0>        -0.1752
     10 C7          1.6066    4.0748    3.3346 C.2       1 <0>         0.5046
     11 O1          0.6011    4.7145    3.0773 O.co2     1 <0>        -0.6924
     12 O2          2.1698    4.2286    4.4049 O.co2     1 <0>        -0.6977
     13 C8          3.2699    3.5569   -0.2372 C.2       1 <0>         0.5921
     14 O3          3.7376    4.6769   -0.3069 O.2       1 <0>        -0.5222
     15 N3          4.0829    2.4830   -0.2857 N.am      1 <0>        -0.6991
     16 C9          5.5363    2.6651   -0.3119 C.3       1 <0>         0.1193
     17 H1          5.8483    3.6070    0.1393 H         1 <0>         0.1362
     18 C10         6.3012    1.4636    0.2177 C.3       1 <0>         0.1391
     19 H2          7.1558    1.6853    0.8571 H         1 <0>         0.1429
     20 N4          6.5876    1.2356   -1.2304 N.am      1 <0>        -0.5647
     21 C11         6.1435    2.4266   -1.6765 C.2       1 <0>         0.5450
     22 O4          6.2032    3.0429   -2.7195 O.2       1 <0>        -0.4319
     23 C12         7.0296    0.0274   -1.8091 C.2       1 <0>         0.0870
     24 C13         6.8653   -1.1213   -1.1712 C.2       1 <0>        -0.2276
     25 C14         6.2855   -1.3571    0.1854 C.3       1 <0>        -0.0194
     26 S2          5.2747    0.0588    0.7678 S.3       1 <0>        -0.2438
     27 C15         7.6772    0.0436   -3.1308 C.2       1 <0>         0.5213
     28 O5          8.0621   -1.0019   -3.6363 O.co2     1 <0>        -0.6818
     29 O6          7.8307    1.1027   -3.7238 O.co2     1 <0>        -0.6549
     30 H3         -0.9792    2.8986   -0.3369 H         1 <0>         0.1977
     31 H4          1.9278    4.6009   -5.0258 H         1 <0>         0.4185
     32 H5          0.3282    4.4149   -5.5048 H         1 <0>         0.4160
     33 H6          0.2271    2.8691    1.1874 H         1 <0>         0.1265
     34 H7          2.1660    2.0953    2.7664 H         1 <0>         0.0848
     35 H8          3.1675    3.3829    2.0543 H         1 <0>         0.0703
     36 H9          3.7056    1.5896   -0.3032 H         1 <0>         0.4115
     37 H10         7.1931   -2.0033   -1.7012 H         1 <0>         0.1357
     38 H11         5.6626   -2.2511    0.1546 H         1 <0>         0.1106
     39 H12         7.0970   -1.5161    0.8954 H         1 <0>         0.0892
@<TRIPOS>BOND
     1    1    5 1
     2    1    2 2
     3    1   30 1
     4    2    3 1
     5    2    7 1
     6    3    4 2
     7    4    5 1
     8    4    6 1
     9    6   31 1
    10    6   32 1
    11    7    8 2
    12    7   13 1
    13    8    9 1
    14    8   33 1
    15    9   10 1
    16    9   34 1
    17    9   35 1
    18   10   11 2
    19   10   12 1
    20   13   14 2
    21   13   15 am
    22   15   16 1
    23   15   36 1
    24   16   17 1
    25   16   21 1
    26   16   18 1
    27   18   19 1
    28   18   26 1
    29   18   20 1
    30   20   21 am
    31   20   23 1
    32   21   22 2
    33   23   24 2
    34   23   27 1
    35   24   25 1
    36   24   37 1
    37   25   26 1
    38   25   38 1
    39   25   39 1
    40   27   28 2
    41   27   29 1
