@<TRIPOS>MOLECULE
ZINC03830469
   58    61     0     0     0
SMALL
USER_CHARGES
8-[2-(2-aminothiazol-4-yl)-2-(1-carboxy-1-methyl-ethoxy)imino-acetyl]amino-7-oxo-4-(1-pyridylmethyl)-2-thia-6-azabicyclo[4.2.0]oct-4-ene-5-carboxylic acid
@<TRIPOS>ATOM
      1 C1         -4.5359   -0.1774    2.4281 C.3       1 <0>        -0.1479
      2 C2         -5.0556   -0.8993    1.1832 C.3       1 <0>         0.0660
      3 C3         -4.7433   -0.0626   -0.0591 C.3       1 <0>        -0.1446
      4 C4         -6.5460   -1.0902    1.2986 C.2       1 <0>         0.4871
      5 O1         -7.0152   -2.2035    1.2863 O.co2     1 <0>        -0.6171
      6 O2         -4.4194   -2.1739    1.0713 O.3       1 <0>        -0.1666
      7 N1         -3.0096   -2.1059    0.9570 N.2       1 <0>        -0.2855
      8 C5         -2.3113   -3.2004    0.8482 C.2       1 <0>         0.1576
      9 C6         -2.9704   -4.5158    0.9969 C.2       1 <0>         0.0761
     10 C7         -4.2350   -4.6029    1.5148 C.2       1 <0>        -0.1479
     11 S1         -4.4989   -6.3701    1.4551 S.3       1 <0>        -0.0201
     12 C8         -2.9158   -6.8122    0.7538 C.2       1 <0>         0.3635
     13 N2         -2.3434   -5.6304    0.6234 N.2       1 <0>        -0.5277
     14 N3         -2.4219   -8.0643    0.4281 N.pl3     1 <0>        -0.8027
     15 C9         -0.8566   -3.1272    0.5756 C.2       1 <0>         0.5940
     16 O3         -0.2053   -4.1480    0.4741 O.2       1 <0>        -0.4745
     17 N4         -0.2559   -1.9283    0.4401 N.am      1 <0>        -0.6932
     18 C10         1.1823   -1.8559    0.1705 C.3       1 <0>         0.1462
     19 H1          1.5894   -2.7716   -0.2583 H         1 <0>         0.1663
     20 C11         1.6247   -0.5852   -0.5312 C.3       1 <0>         0.1108
     21 H2          2.3686   -0.7366   -1.3134 H         1 <0>         0.1466
     22 N5          2.1666   -0.0624    0.7522 N.am      1 <0>        -0.5646
     23 C12         2.0163   -1.2597    1.3066 C.2       1 <0>         0.5166
     24 O4          2.4123   -1.7249    2.3544 O.2       1 <0>        -0.4323
     25 C13         2.4746    1.2681    1.0679 C.2       1 <0>         0.2069
     26 C14         1.9788    2.2586    0.3400 C.2       1 <0>        -0.2583
     27 C15         1.1197    2.1690   -0.8792 C.3       1 <0>        -0.0327
     28 S2          0.2836    0.5578   -1.0073 S.3       1 <0>        -0.1930
     29 C16         2.3254    3.6512    0.8002 C.3       1 <0>         0.0783
     30 N6          3.1333    4.3172   -0.2245 N.ar      1 <0>        -0.3109
     31 C17         4.3390    3.8552   -0.4921 C.ar      1 <0>         0.1519
     32 C18         5.1281    4.4547   -1.4555 C.ar      1 <0>        -0.1345
     33 C19         4.6407    5.5601   -2.1359 C.ar      1 <0>        -0.0170
     34 C20         3.3706    6.0201   -1.8236 C.ar      1 <0>        -0.1357
     35 C21         2.6377    5.3663   -0.8513 C.ar      1 <0>         0.1077
     36 C22         3.3532    1.5667    2.2132 C.2       1 <0>         0.4874
     37 O5          3.1901    0.9905    3.2705 O.co2     1 <0>        -0.5543
     38 H3         -3.4579   -0.0394    2.3447 H         1 <0>         0.0552
     39 H4         -5.0212    0.7948    2.5135 H         1 <0>         0.0729
     40 H5         -4.7584   -0.7735    3.3132 H         1 <0>         0.0523
     41 H6         -5.1134   -0.5768   -0.9460 H         1 <0>         0.0513
     42 H7         -5.2285    0.9097    0.0263 H         1 <0>         0.0711
     43 H8         -3.6653    0.0755   -0.1426 H         1 <0>         0.0556
     44 H9         -4.8922   -3.8198    1.8630 H         1 <0>         0.2245
     45 H10        -2.9648   -8.8539    0.5787 H         1 <0>         0.4167
     46 H11        -1.5332   -8.1516    0.0495 H         1 <0>         0.4146
     47 H12        -0.7758   -1.1134    0.5210 H         1 <0>         0.4219
     48 H13         1.7412    2.3169   -1.7624 H         1 <0>         0.0861
     49 H14         0.3673    2.9567   -0.8413 H         1 <0>         0.1180
     50 H15         1.4090    4.2178    0.9655 H         1 <0>         0.1194
     51 H16         2.8913    3.5962    1.7301 H         1 <0>         0.1785
     52 H17         4.7129    2.9961    0.0452 H         1 <0>         0.2201
     53 H18         6.1133    4.0694   -1.6728 H         1 <0>         0.1764
     54 H19         5.2364    6.0513   -2.8911 H         1 <0>         0.1659
     55 H20         2.9590    6.8784   -2.3339 H         1 <0>         0.1751
     56 H21         1.6476    5.7184   -0.6021 H         1 <0>         0.1973
     57 O6         -7.3522   -0.0233    1.4151 O.co2     1 <0>        -0.7440
     58 O7          4.3373    2.4789    2.0877 O.co2     1 <0>        -0.7307
@<TRIPOS>BOND
     1    1    2 1
     2    1   38 1
     3    1   39 1
     4    1   40 1
     5    2    3 1
     6    2    4 1
     7    2    6 1
     8    3   41 1
     9    3   42 1
    10    3   43 1
    11    4    5 2
    12    4   57 1
    13    6    7 1
    14    7    8 2
    15    8    9 1
    16    8   15 1
    17    9   13 1
    18    9   10 2
    19   10   11 1
    20   10   44 1
    21   11   12 1
    22   12   13 2
    23   12   14 1
    24   14   45 1
    25   14   46 1
    26   15   16 2
    27   15   17 am
    28   17   18 1
    29   17   47 1
    30   18   19 1
    31   18   23 1
    32   18   20 1
    33   20   21 1
    34   20   28 1
    35   20   22 1
    36   22   23 am
    37   22   25 1
    38   23   24 2
    39   25   26 2
    40   25   36 1
    41   26   27 1
    42   26   29 1
    43   27   28 1
    44   27   48 1
    45   27   49 1
    46   29   30 1
    47   29   50 1
    48   29   51 1
    49   30   35 ar
    50   30   31 ar
    51   31   32 ar
    52   31   52 1
    53   32   33 ar
    54   32   53 1
    55   33   34 ar
    56   33   54 1
    57   34   35 ar
    58   34   55 1
    59   35   56 1
    60   36   37 2
    61   36   58 1
