@<TRIPOS>MOLECULE
ZINC71789555
   44    46     0     0     0
SMALL
USER_CHARGES

@<TRIPOS>ATOM
      1 C1         -0.1468    1.3941    0.1172 C.3       1 <0>         0.0485
      2 O1         -0.0888   -0.0330    0.0717 O.3       1 <0>        -0.2314
      3 N1          0.6029   -0.6163    1.1609 N.2       1 <0>        -0.2862
      4 C2          0.7258   -1.9100    1.2362 C.2       1 <0>         0.1922
      5 C3          1.5403   -2.5147    2.3146 C.2       1 <0>        -0.1605
      6 C4          2.2673   -1.8100    3.3778 C.2       1 <0>        -0.1769
      7 C5          2.8570   -2.7630    4.1178 C.2       1 <0>        -0.0446
      8 O2          2.5558   -3.9655    3.6041 O.3       1 <0>        -0.1761
      9 C6          1.7656   -3.8394    2.5297 C.2       1 <0>         0.0481
     10 C7          0.0504   -2.7775    0.2426 C.2       1 <0>         0.5339
     11 O3          0.0645   -3.9846    0.3808 O.2       1 <0>        -0.5236
     12 N2         -0.5795   -2.2275   -0.8145 N.am      1 <0>        -0.6765
     13 C8         -1.3588   -3.0718   -1.7233 C.3       1 <0>         0.1112
     14 H1         -1.7205   -3.9810   -1.2431 H         1 <0>         0.1411
     15 C9         -2.4458   -2.3115   -2.4647 C.3       1 <0>         0.1364
     16 H2         -3.4043   -2.8215   -2.5615 H         1 <0>         0.1468
     17 N3         -1.4991   -2.4381   -3.6130 N.am      1 <0>        -0.5595
     18 C10        -0.6649   -3.3287   -3.0424 C.2       1 <0>         0.5447
     19 O4          0.2478   -4.0326   -3.4202 O.2       1 <0>        -0.4215
     20 C11        -1.5187   -1.6669   -4.7941 C.2       1 <0>         0.0887
     21 C12        -2.1485   -0.5025   -4.8244 C.2       1 <0>        -0.1859
     22 C13        -2.9410    0.1547   -3.7417 C.3       1 <0>        -0.0061
     23 S1         -2.5588   -0.5306   -2.0834 S.3       1 <0>        -0.2439
     24 C14        -2.0531    0.2599   -6.1207 C.3       1 <0>         0.1584
     25 O5         -2.6766    1.5368   -5.9694 O.3       1 <0>        -0.3850
     26 C15        -2.7695    2.3060   -7.0705 C.2       1 <0>         0.6475
     27 O6         -2.3331    1.9042   -8.1309 O.2       1 <0>        -0.5625
     28 N4         -3.3465    3.5217   -6.9965 N.am      1 <0>        -0.8348
     29 C16        -0.8343   -2.1595   -6.0005 C.2       1 <0>         0.5143
     30 O7         -0.9312   -1.5438   -7.0533 O.co2     1 <0>        -0.6569
     31 O8         -0.1685   -3.1848   -5.9505 O.co2     1 <0>        -0.6481
     32 H3          0.8650    1.7993    0.1097 H         1 <0>         0.0553
     33 H4         -0.6925    1.7634   -0.7511 H         1 <0>         0.1046
     34 H5         -0.6573    1.7082    1.0276 H         1 <0>         0.0557
     35 H6          2.3178   -0.7424    3.5330 H         1 <0>         0.1576
     36 H7          3.4745   -2.5895    4.9867 H         1 <0>         0.2067
     37 H8          1.3758   -4.6513    1.9336 H         1 <0>         0.2290
     38 H9         -0.5168   -1.2727   -0.9734 H         1 <0>         0.4239
     39 H10        -2.7268    1.2234   -3.7439 H         1 <0>         0.1237
     40 H11        -4.0027    0.0066   -3.9392 H         1 <0>         0.0942
     41 H12        -1.0046    0.3967   -6.3854 H         1 <0>         0.0948
     42 H13        -2.5569   -0.2993   -6.9091 H         1 <0>         0.0986
     43 H14        -3.6949    3.8425   -6.1499 H         1 <0>         0.4032
     44 H15        -3.4135    4.0759   -7.7897 H         1 <0>         0.4208
@<TRIPOS>BOND
     1    1    2 1
     2    1   32 1
     3    1   33 1
     4    1   34 1
     5    2    3 1
     6    3    4 2
     7    4    5 1
     8    4   10 1
     9    5    9 2
    10    5    6 1
    11    6    7 2
    12    6   35 1
    13    7    8 1
    14    7   36 1
    15    8    9 1
    16    9   37 1
    17   10   11 2
    18   10   12 am
    19   12   13 1
    20   12   38 1
    21   13   14 1
    22   13   18 1
    23   13   15 1
    24   15   16 1
    25   15   23 1
    26   15   17 1
    27   17   18 am
    28   17   20 1
    29   18   19 2
    30   20   21 2
    31   20   29 1
    32   21   22 1
    33   21   24 1
    34   22   23 1
    35   22   39 1
    36   22   40 1
    37   24   25 1
    38   24   41 1
    39   24   42 1
    40   25   26 1
    41   26   27 2
    42   26   28 am
    43   28   43 1
    44   28   44 1
    45   29   30 2
    46   29   31 1
