@<TRIPOS>MOLECULE
ZINC03830511
   44    46     0     0     0
SMALL
USER_CHARGES

@<TRIPOS>ATOM
      1 C1         -0.3002   -3.9150    2.1847 C.3       1 <0>        -0.1440
      2 C2         -0.1644   -2.8390    1.1384 C.2       1 <0>         0.4524
      3 O1         -0.0803   -1.6803    1.4707 O.2       1 <0>        -0.5049
      4 O2         -0.1368   -3.1676   -0.1627 O.3       1 <0>        -0.3741
      5 C3         -0.0061   -2.0967   -1.0998 C.3       1 <0>         0.1396
      6 C4          0.1259   -2.6601   -2.4913 C.2       1 <0>        -0.1837
      7 C5          0.2390   -1.7721   -3.4681 C.2       1 <0>         0.0972
      8 N1          0.4152   -2.1880   -4.7991 N.am      1 <0>        -0.5502
      9 C6          0.1644   -3.5436   -5.3537 C.3       1 <0>         0.1198
     10 H1         -0.8653   -3.7515   -5.6445 H         1 <0>         0.1416
     11 C7          1.0856   -3.1430   -6.4860 C.3       1 <0>         0.1270
     12 H2          0.6671   -3.3080   -7.4789 H         1 <0>         0.1514
     13 C8          0.8821   -1.7488   -5.9588 C.2       1 <0>         0.5271
     14 O3          1.0729   -0.6433   -6.4199 O.2       1 <0>        -0.4356
     15 N2          2.4553   -3.6438   -6.3472 N.am      1 <0>        -0.6894
     16 C9          3.2243   -3.8150   -7.4408 C.2       1 <0>         0.5411
     17 O4          2.7823   -3.5545   -8.5397 O.2       1 <0>        -0.5101
     18 C10         4.6333   -4.3302   -7.2980 C.3       1 <0>        -0.1559
     19 S1          5.4021   -4.4503   -8.9366 S.3       1 <0>        -0.0016
     20 C11         7.0221   -5.0583   -8.6038 C.ar      1 <0>        -0.0593
     21 C12         7.4297   -5.3323   -7.2976 C.ar      1 <0>        -0.1921
     22 C13         8.7055   -5.8073   -7.0800 C.ar      1 <0>         0.1203
     23 N3          9.5362   -6.0026   -8.0874 N.ar      1 <0>        -0.4948
     24 C14         9.1886   -5.7556   -9.3367 C.ar      1 <0>         0.1172
     25 C15         7.9290   -5.2841   -9.6401 C.ar      1 <0>        -0.1550
     26 S2          0.8544   -4.7238   -4.1440 S.3       1 <0>        -0.2390
     27 C16         0.1188   -4.1509   -2.5968 C.3       1 <0>        -0.0170
     28 C17         0.1788   -0.3349   -3.1562 C.2       1 <0>         0.5146
     29 O5          0.1289    0.0368   -1.9916 O.co2     1 <0>        -0.6571
     30 O6          0.1788    0.4881   -4.0615 O.co2     1 <0>        -0.6476
     31 H3         -1.3560   -4.0877    2.3934 H         1 <0>         0.0992
     32 H4          0.1534   -4.8363    1.8194 H         1 <0>         0.0892
     33 H5          0.2038   -3.5992    3.0982 H         1 <0>         0.0974
     34 H6         -0.8886   -1.4590   -1.0482 H         1 <0>         0.0952
     35 H7          0.8806   -1.5100   -0.8597 H         1 <0>         0.0970
     36 H8          2.8088   -3.8521   -5.4683 H         1 <0>         0.4168
     37 H9          5.2092   -3.6452   -6.6757 H         1 <0>         0.1243
     38 H10         4.6144   -5.3155   -6.8324 H         1 <0>         0.1252
     39 H11         6.7555   -5.1741   -6.4689 H         1 <0>         0.1351
     40 H12         9.0297   -6.0221   -6.0725 H         1 <0>         0.1587
     41 H13         9.8987   -5.9287  -10.1318 H         1 <0>         0.1607
     42 H14         7.6497   -5.0881  -10.6648 H         1 <0>         0.1410
     43 H15         0.6749   -4.5691   -1.7578 H         1 <0>         0.1270
     44 H16        -0.9109   -4.5054   -2.5507 H         1 <0>         0.0953
@<TRIPOS>BOND
     1    1    2 1
     2    1   31 1
     3    1   32 1
     4    1   33 1
     5    2    3 2
     6    2    4 1
     7    4    5 1
     8    5    6 1
     9    5   34 1
    10    5   35 1
    11    6   27 1
    12    6    7 2
    13    7    8 1
    14    7   28 1
    15    8   13 am
    16    8    9 1
    17    9   10 1
    18    9   11 1
    19    9   26 1
    20   11   12 1
    21   11   13 1
    22   11   15 1
    23   13   14 2
    24   15   16 am
    25   15   36 1
    26   16   17 2
    27   16   18 1
    28   18   19 1
    29   18   37 1
    30   18   38 1
    31   19   20 1
    32   20   25 ar
    33   20   21 ar
    34   21   22 ar
    35   21   39 1
    36   22   23 ar
    37   22   40 1
    38   23   24 ar
    39   24   25 ar
    40   24   41 1
    41   25   42 1
    42   26   27 1
    43   27   43 1
    44   27   44 1
    45   28   29 2
    46   28   30 1
