@<TRIPOS>MOLECULE
ZINC30690463
   49    52     0     0     0
SMALL
USER_CHARGES

@<TRIPOS>ATOM
      1 C1         -0.3281    0.9840    1.8023 C.3       1 <0>        -0.1179
      2 C2         -0.1584   -0.4996    1.4690 C.3       1 <0>         0.0225
      3 C3          0.3635   -0.7040    0.0178 C.3       1 <0>         0.0207
      4 H1          1.0405    0.1114   -0.2368 H         1 <0>         0.1091
      5 N1          1.0752   -1.9791   -0.1148 N.am      1 <0>        -0.5019
      6 C4          1.7368   -2.4781    1.0984 C.3       1 <0>         0.0905
      7 H2          1.5462   -3.5188    1.3606 H         1 <0>         0.1461
      8 S1          1.2697   -1.2424    2.3796 S.3       1 <0>        -0.2821
      9 C5          3.0673   -2.2015    0.4210 C.3       1 <0>         0.0906
     10 H3          3.7261   -3.0682    0.3655 H         1 <0>         0.1239
     11 C6          2.2313   -1.9900   -0.8060 C.2       1 <0>         0.5178
     12 O1          2.4974   -1.8722   -1.9833 O.2       1 <0>        -0.4353
     13 N2          3.7428   -0.9941    0.9027 N.am      1 <0>        -0.5827
     14 C7          3.5627    0.2473    0.4079 C.2       1 <0>         0.5208
     15 O2          2.8255    0.5450   -0.5080 O.2       1 <0>        -0.4763
     16 C8          4.4348    1.2065    1.1881 C.3       1 <0>         0.0883
     17 H4          5.3277    1.4588    0.6161 H         1 <0>         0.0931
     18 N3          4.8023    0.4669    2.4191 N.3       1 <0>        -0.6331
     19 C9          4.7146   -0.9495    2.0021 C.3       1 <0>         0.3209
     20 C10         4.2303   -1.8139    3.1679 C.3       1 <0>        -0.1461
     21 C11         6.0812   -1.4370    1.5166 C.3       1 <0>        -0.1881
     22 C12         3.6639    2.4545    1.5333 C.ar      1 <0>        -0.0712
     23 C13         2.7704    2.4454    2.5880 C.ar      1 <0>        -0.0727
     24 C14         2.0632    3.5902    2.9047 C.ar      1 <0>        -0.1265
     25 C15         2.2500    4.7442    2.1669 C.ar      1 <0>        -0.1137
     26 C16         3.1442    4.7536    1.1128 C.ar      1 <0>        -0.1249
     27 C17         3.8545    3.6100    0.7988 C.ar      1 <0>        -0.1019
     28 C18        -0.8049   -0.6913   -0.9339 C.2       1 <0>         0.5134
     29 O3         -1.1759    0.3590   -1.4296 O.co2     1 <0>        -0.6875
     30 O4         -1.3791   -1.7312   -1.2082 O.co2     1 <0>        -0.6690
     31 C19        -1.4515   -1.2783    1.7185 C.3       1 <0>        -0.1216
     32 H5          0.5860    1.5205    1.5477 H         1 <0>         0.0665
     33 H6         -1.1606    1.3922    1.2292 H         1 <0>         0.0799
     34 H7         -0.5306    1.0963    2.8674 H         1 <0>         0.0587
     35 H8          5.7377    0.7013    2.7162 H         1 <0>         0.3563
     36 H9          4.1165   -2.8449    2.8330 H         1 <0>         0.0606
     37 H10         4.9590   -1.7733    3.9776 H         1 <0>         0.0698
     38 H11         3.2705   -1.4394    3.5237 H         1 <0>         0.0910
     39 H12         6.4286   -0.7963    0.7061 H         1 <0>         0.0598
     40 H13         6.7940   -1.3996    2.3404 H         1 <0>         0.0767
     41 H14         5.9945   -2.4625    1.1575 H         1 <0>         0.0718
     42 H15         2.6245    1.5438    3.1644 H         1 <0>         0.1342
     43 H16         1.3646    3.5829    3.7282 H         1 <0>         0.1199
     44 H17         1.6970    5.6385    2.4139 H         1 <0>         0.1186
     45 H18         3.2899    5.6551    0.5362 H         1 <0>         0.1200
     46 H19         4.5559    3.6183   -0.0224 H         1 <0>         0.1176
     47 H20        -2.2436   -0.8800    1.0844 H         1 <0>         0.0741
     48 H21        -1.2928   -2.3309    1.4836 H         1 <0>         0.0660
     49 H22        -1.7393   -1.1790    2.7651 H         1 <0>         0.0530
@<TRIPOS>BOND
     1    1    2 1
     2    1   32 1
     3    1   33 1
     4    1   34 1
     5    2    8 1
     6    2    3 1
     7    2   31 1
     8    3    4 1
     9    3    5 1
    10    3   28 1
    11    5   11 am
    12    5    6 1
    13    6    7 1
    14    6    8 1
    15    6    9 1
    16    9   10 1
    17    9   11 1
    18    9   13 1
    19   11   12 2
    20   13   19 1
    21   13   14 am
    22   14   15 2
    23   14   16 1
    24   16   17 1
    25   16   18 1
    26   16   22 1
    27   18   19 1
    28   18   35 1
    29   19   20 1
    30   19   21 1
    31   20   36 1
    32   20   37 1
    33   20   38 1
    34   21   39 1
    35   21   40 1
    36   21   41 1
    37   22   27 ar
    38   22   23 ar
    39   23   24 ar
    40   23   42 1
    41   24   25 ar
    42   24   43 1
    43   25   26 ar
    44   25   44 1
    45   26   27 ar
    46   26   45 1
    47   27   46 1
    48   28   29 2
    49   28   30 1
    50   31   47 1
    51   31   48 1
    52   31   49 1
