@<TRIPOS>MOLECULE
ZINC03831070
   45    47     0     0     0
SMALL
USER_CHARGES

@<TRIPOS>ATOM
      1 C1         -0.0187    1.5258    0.0104 C.3       1 <0>        -0.1211
      2 C2          0.0021   -0.0041    0.0020 C.3       1 <0>         0.0303
      3 C3          0.9183   -0.5578   -1.1267 C.3       1 <0>         0.0316
      4 H1          1.7655    0.1146   -1.2616 H         1 <0>         0.0687
      5 N1          1.4152   -1.8973   -0.7968 N.am      1 <0>        -0.5074
      6 C4          1.5639   -2.1961    0.6340 C.3       1 <0>         0.1072
      7 H2          1.1313   -3.1348    0.9800 H         1 <0>         0.1544
      8 S1          0.9226   -0.6800    1.4567 S.3       1 <0>        -0.3033
      9 C5          3.0673   -2.2015    0.4210 C.3       1 <0>         0.0838
     10 H3          3.5574   -3.1223    0.7376 H         1 <0>         0.1376
     11 C6          2.7129   -2.1678   -1.0358 C.2       1 <0>         0.4956
     12 O1          3.3561   -2.3252   -2.0520 O.2       1 <0>        -0.4355
     13 N2          3.7428   -0.9941    0.9027 N.am      1 <0>        -0.6838
     14 C7          5.0446   -1.0426    1.2482 C.2       1 <0>         0.5930
     15 O2          5.6586   -2.0888    1.1601 O.2       1 <0>        -0.5244
     16 C8          5.7235    0.1709    1.7324 C.ar      1 <0>        -0.1968
     17 C9          5.7419    0.4710    3.1023 C.ar      1 <0>         0.2043
     18 C10         6.3841    1.6153    3.5470 C.ar      1 <0>        -0.2503
     19 C11         7.0051    2.4598    2.6458 C.ar      1 <0>        -0.0215
     20 C12         6.9927    2.1739    1.2933 C.ar      1 <0>        -0.2488
     21 C13         6.3614    1.0319    0.8275 C.ar      1 <0>         0.2035
     22 O3          6.3558    0.7504   -0.4995 O.3       1 <0>        -0.3023
     23 C14         7.0257    1.6728   -1.3612 C.3       1 <0>         0.0267
     24 O4          5.1328   -0.3560    3.9886 O.3       1 <0>        -0.3033
     25 C15         5.1925    0.0138    5.3676 C.3       1 <0>         0.0276
     26 C16         0.1332   -0.6267   -2.4112 C.2       1 <0>         0.5145
     27 O5          0.1177    0.3290   -3.1682 O.co2     1 <0>        -0.6865
     28 O6         -0.4864   -1.6381   -2.6935 O.co2     1 <0>        -0.6581
     29 C17        -1.4126   -0.5802   -0.0861 C.3       1 <0>        -0.1227
     30 H4          1.0039    1.9031    0.0027 H         1 <0>         0.0634
     31 H5         -0.5459    1.8868   -0.8726 H         1 <0>         0.0871
     32 H6         -0.5289    1.8773    0.9072 H         1 <0>         0.0652
     33 H7          3.2531   -0.1597    0.9729 H         1 <0>         0.4137
     34 H8          6.3992    1.8484    4.6014 H         1 <0>         0.1359
     35 H9          7.5034    3.3498    3.0010 H         1 <0>         0.1323
     36 H10         7.4804    2.8408    0.5978 H         1 <0>         0.1368
     37 H11         6.9458    1.3299   -2.3928 H         1 <0>         0.1060
     38 H12         6.5654    2.6565   -1.2686 H         1 <0>         0.0610
     39 H13         8.0768    1.7355   -1.0796 H         1 <0>         0.0592
     40 H14         4.6680   -0.7307    5.9664 H         1 <0>         0.1035
     41 H15         6.2340    0.0671    5.6847 H         1 <0>         0.0582
     42 H16         4.7211    0.9872    5.5035 H         1 <0>         0.0599
     43 H17        -1.8843   -0.2455   -1.0100 H         1 <0>         0.0782
     44 H18        -1.3627   -1.6690   -0.0774 H         1 <0>         0.0697
     45 H19        -1.9986   -0.2365    0.7662 H         1 <0>         0.0572
@<TRIPOS>BOND
     1    1    2 1
     2    1   30 1
     3    1   31 1
     4    1   32 1
     5    2    8 1
     6    2    3 1
     7    2   29 1
     8    3    4 1
     9    3    5 1
    10    3   26 1
    11    5   11 am
    12    5    6 1
    13    6    7 1
    14    6    8 1
    15    6    9 1
    16    9   10 1
    17    9   11 1
    18    9   13 1
    19   11   12 2
    20   13   14 am
    21   13   33 1
    22   14   15 2
    23   14   16 1
    24   16   21 ar
    25   16   17 ar
    26   17   18 ar
    27   17   24 1
    28   18   19 ar
    29   18   34 1
    30   19   20 ar
    31   19   35 1
    32   20   21 ar
    33   20   36 1
    34   21   22 1
    35   22   23 1
    36   23   37 1
    37   23   38 1
    38   23   39 1
    39   24   25 1
    40   25   40 1
    41   25   41 1
    42   25   42 1
    43   26   27 2
    44   26   28 1
    45   29   43 1
    46   29   44 1
    47   29   45 1
