@<TRIPOS>MOLECULE
ZINC03875980
   50    53     0     0     0
SMALL
USER_CHARGES

@<TRIPOS>ATOM
      1 C1         -0.0187    1.5258    0.0104 C.3       1 <0>        -0.1558
      2 C2          0.0021   -0.0041    0.0020 C.3       1 <0>         0.0544
      3 O1         -1.3386   -0.4987    0.0122 O.3       1 <0>        -0.3028
      4 C3         -1.4979   -1.8447    0.0065 C.ar      1 <0>         0.1766
      5 C4         -0.3763   -2.6763   -0.0029 C.ar      1 <0>        -0.1927
      6 C5         -0.4895   -4.0292   -0.0088 C.ar      1 <0>        -0.0458
      7 C6         -1.7540   -4.6467   -0.0057 C.ar      1 <0>        -0.0852
      8 C7         -1.8814   -6.0457   -0.0118 C.ar      1 <0>        -0.0901
      9 C8         -3.1212   -6.6096   -0.0081 C.ar      1 <0>        -0.1292
     10 C9         -4.2679   -5.8198    0.0015 C.ar      1 <0>        -0.0958
     11 C10        -4.1803   -4.4591    0.0071 C.ar      1 <0>        -0.1120
     12 C11        -2.9217   -3.8468    0.0041 C.ar      1 <0>         0.0191
     13 C12        -2.7818   -2.3912    0.0158 C.ar      1 <0>        -0.1721
     14 C13        -3.9680   -1.5226    0.0313 C.2       1 <0>         0.5856
     15 O2         -4.4686   -1.1579   -1.0158 O.2       1 <0>        -0.5240
     16 N1         -4.5007   -1.1303    1.2055 N.am      1 <0>        -0.6894
     17 C14        -5.6826   -0.2648    1.2209 C.3       1 <0>         0.0754
     18 H1         -6.2842   -0.3593    0.3170 H         1 <0>         0.1287
     19 C15        -6.4977   -0.3770    2.5045 C.3       1 <0>         0.1200
     20 H2         -7.5806   -0.4307    2.3919 H         1 <0>         0.1570
     21 N2         -5.9090    0.9416    2.8198 N.am      1 <0>        -0.5155
     22 C16        -5.3721    1.1657    1.5863 C.2       1 <0>         0.5114
     23 O3         -4.8624    2.1111    1.0230 O.2       1 <0>        -0.4255
     24 C17        -4.9719    0.9698    3.9481 C.3       1 <0>         0.0246
     25 H3         -3.9563    0.8538    3.5697 H         1 <0>         0.0672
     26 C18        -5.2653   -0.1647    4.9684 C.3       1 <0>         0.0480
     27 S1         -5.7757   -1.5020    3.7663 S.3       1 <0>        -0.3174
     28 C19        -6.4135    0.2073    5.9087 C.3       1 <0>        -0.1291
     29 C20        -4.0095   -0.5578    5.7491 C.3       1 <0>        -0.1256
     30 C21        -5.0860    2.2992    4.6487 C.2       1 <0>         0.5135
     31 O4         -5.9761    3.0746    4.3438 O.co2     1 <0>        -0.6574
     32 O5         -4.2881    2.5994    5.5203 O.co2     1 <0>        -0.6870
     33 H4          1.0039    1.9031    0.0027 H         1 <0>         0.0800
     34 H5         -0.5459    1.8868   -0.8726 H         1 <0>         0.0685
     35 H6         -0.5289    1.8773    0.9072 H         1 <0>         0.0713
     36 H7          0.5123   -0.3556   -0.8948 H         1 <0>         0.0642
     37 H8          0.5293   -0.3651    0.8851 H         1 <0>         0.0656
     38 H9          0.6077   -2.2313   -0.0058 H         1 <0>         0.1363
     39 H10         0.4018   -4.6390   -0.0164 H         1 <0>         0.1348
     40 H11        -1.0008   -6.6710   -0.0196 H         1 <0>         0.1286
     41 H12        -3.2163   -7.6854   -0.0132 H         1 <0>         0.1242
     42 H13        -5.2396   -6.2913    0.0042 H         1 <0>         0.1260
     43 H14        -5.0771   -3.8573    0.0139 H         1 <0>         0.1259
     44 H15        -4.1015   -1.4210    2.0404 H         1 <0>         0.4148
     45 H16        -7.3165    0.3880    5.3256 H         1 <0>         0.0641
     46 H17        -6.5899   -0.6101    6.6079 H         1 <0>         0.0600
     47 H18        -6.1520    1.1091    6.4624 H         1 <0>         0.0846
     48 H19        -3.6354    0.3081    6.2953 H         1 <0>         0.0977
     49 H20        -4.2534   -1.3537    6.4528 H         1 <0>         0.0639
     50 H21        -3.2451   -0.9079    5.0553 H         1 <0>         0.0602
@<TRIPOS>BOND
     1    1    2 1
     2    1   33 1
     3    1   34 1
     4    1   35 1
     5    2    3 1
     6    2   36 1
     7    2   37 1
     8    3    4 1
     9    4   13 ar
    10    4    5 ar
    11    5    6 ar
    12    5   38 1
    13    6    7 ar
    14    6   39 1
    15    7   12 ar
    16    7    8 ar
    17    8    9 ar
    18    8   40 1
    19    9   10 ar
    20    9   41 1
    21   10   11 ar
    22   10   42 1
    23   11   12 ar
    24   11   43 1
    25   12   13 ar
    26   13   14 1
    27   14   15 2
    28   14   16 am
    29   16   17 1
    30   16   44 1
    31   17   18 1
    32   17   22 1
    33   17   19 1
    34   19   20 1
    35   19   27 1
    36   19   21 1
    37   21   22 am
    38   21   24 1
    39   22   23 2
    40   24   25 1
    41   24   26 1
    42   24   30 1
    43   26   27 1
    44   26   28 1
    45   26   29 1
    46   28   45 1
    47   28   46 1
    48   28   47 1
    49   29   48 1
    50   29   49 1
    51   29   50 1
    52   30   31 2
    53   30   32 1
