@<TRIPOS>MOLECULE
ZINC00003742
   41    43     0     0     0
SMALL
USER_CHARGES

@<TRIPOS>ATOM
      1 C1         -0.0187    1.5258    0.0104 C.3       1 <0>        -0.1749
      2 C2          0.0021   -0.0041    0.0020 C.3       1 <0>         0.0901
      3 N1         -1.3723   -0.5112    0.0124 N.pl3     1 <0>        -0.4947
      4 C3         -1.9640   -0.7340    1.1919 C.2       1 <0>         0.1476
      5 C4         -3.2572   -1.2114    1.2875 C.2       1 <0>        -0.2829
      6 C5         -4.0090   -1.4834    0.0501 C.2       1 <0>         0.4099
      7 O1         -5.1521   -1.9047    0.0814 O.2       1 <0>        -0.4344
      8 C6         -3.3216   -1.2243   -1.2260 C.ar      1 <0>        -0.1605
      9 C7         -2.0034   -0.7332   -1.1939 C.ar      1 <0>         0.2045
     10 C8         -1.3444   -0.4805   -2.3909 C.ar      1 <0>        -0.1621
     11 C9         -1.9911   -0.7088   -3.5951 C.ar      1 <0>         0.1641
     12 C10        -3.3021   -1.1916   -3.6164 C.ar      1 <0>         0.0432
     13 C11        -3.9589   -1.4546   -2.4475 C.ar      1 <0>        -0.0528
     14 F1         -3.9194   -1.4093   -4.7982 F         1 <0>        -0.1378
     15 N2         -1.3292   -0.4545   -4.7937 N.pl3     1 <0>        -0.6709
     16 C12        -1.4013    0.8692   -5.4315 C.3       1 <0>         0.1162
     17 C13         0.0232    1.3282   -5.7600 C.3       1 <0>        -0.0231
     18 N3          0.6931    0.3016   -6.5684 N.4       1 <0>        -0.5024
     19 C14         0.8460   -0.9308   -5.7849 C.3       1 <0>        -0.0226
     20 C15        -0.5331   -1.5001   -5.4548 C.3       1 <0>         0.1155
     21 C16        -3.8708   -1.4439    2.5989 C.2       1 <0>         0.5336
     22 O2         -3.2368   -1.2149    3.6206 O.co2     1 <0>        -0.6975
     23 O3         -5.0172   -1.8671    2.6718 O.co2     1 <0>        -0.6592
     24 H1          1.0039    1.9031    0.0027 H         1 <0>         0.0736
     25 H2         -0.5459    1.8868   -0.8726 H         1 <0>         0.0579
     26 H3         -0.5289    1.8773    0.9072 H         1 <0>         0.0718
     27 H4          0.5123   -0.3556   -0.8948 H         1 <0>         0.0843
     28 H5          0.5293   -0.3651    0.8851 H         1 <0>         0.0985
     29 H6         -1.4126   -0.5346    2.0989 H         1 <0>         0.1721
     30 H7         -0.3312   -0.1069   -2.3828 H         1 <0>         0.1386
     31 H8         -4.9720   -1.8282   -2.4678 H         1 <0>         0.1541
     32 H9         -1.9853    0.8022   -6.3494 H         1 <0>         0.0815
     33 H10        -1.8668    1.5799   -4.7487 H         1 <0>         0.1181
     34 H11        -0.0160    2.2629   -6.3194 H         1 <0>         0.1395
     35 H12         0.5782    1.4814   -4.8345 H         1 <0>         0.1324
     36 H13         0.1410    0.1096   -7.3908 H         1 <0>         0.4275
     37 H14         1.4131   -1.6607   -6.3627 H         1 <0>         0.1399
     38 H15         1.3761   -0.7092   -4.8586 H         1 <0>         0.1321
     39 H16        -0.4250   -2.3551   -4.7874 H         1 <0>         0.1183
     40 H17        -1.0280   -1.8104   -6.3750 H         1 <0>         0.0811
     41 H18         1.6031    0.6362   -6.8478 H         1 <0>         0.4296
@<TRIPOS>BOND
     1    1    2 1
     2    1   24 1
     3    1   25 1
     4    1   26 1
     5    2    3 1
     6    2   27 1
     7    2   28 1
     8    3    9 1
     9    3    4 1
    10    4    5 2
    11    4   29 1
    12    5    6 1
    13    5   21 1
    14    6    7 2
    15    6    8 1
    16    8   13 ar
    17    8    9 ar
    18    9   10 ar
    19   10   11 ar
    20   10   30 1
    21   11   12 ar
    22   11   15 1
    23   12   13 ar
    24   12   14 1
    25   13   31 1
    26   15   20 1
    27   15   16 1
    28   16   17 1
    29   16   32 1
    30   16   33 1
    31   17   18 1
    32   17   34 1
    33   17   35 1
    34   18   19 1
    35   18   36 1
    36   18   41 1
    37   19   20 1
    38   19   37 1
    39   19   38 1
    40   20   39 1
    41   20   40 1
    42   21   22 2
    43   21   23 1
