@<TRIPOS>MOLECULE
ZINC03882891
   48    51     0     0     0
SMALL
USER_CHARGES
1-cyclopropyl-7-(3,5-dimethylpiperazin-1-yl)-5,6,8-trifluoro-4-oxo-quinoline-3-carboxylic acid
@<TRIPOS>ATOM
      1 C1          1.1536    3.2144   -8.4651 C.3       1 <0>        -0.1819
      2 C2          0.3678    3.8092   -7.2948 C.3       1 <0>         0.0404
      3 H1          1.0604    4.2515   -6.5787 H         1 <0>         0.1489
      4 C3         -0.4401    2.7052   -6.6086 C.3       1 <0>         0.0207
      5 N1         -1.2239    3.2862   -5.5097 N.pl3     1 <0>        -0.4851
      6 C4         -2.1396    4.3212   -6.0096 C.3       1 <0>         0.0233
      7 C5         -1.3317    5.4252   -6.6957 C.3       1 <0>         0.0403
      8 H2         -0.6584    5.8859   -5.9728 H         1 <0>         0.1491
      9 C6         -2.2847    6.4846   -7.2529 C.3       1 <0>        -0.1819
     10 C7         -1.9192    2.2972   -4.8142 C.ar      1 <0>         0.0822
     11 C8         -1.6781    2.1095   -3.4608 C.ar      1 <0>         0.0938
     12 C9         -2.3719    1.1293   -2.7609 C.ar      1 <0>         0.2126
     13 C10        -3.3081    0.3287   -3.4420 C.ar      1 <0>        -0.1883
     14 C11        -4.0303   -0.7081   -2.6882 C.2       1 <0>         0.4116
     15 O1         -4.8550   -1.4261   -3.2270 O.2       1 <0>        -0.4178
     16 C12        -3.7159   -0.8422   -1.2558 C.2       1 <0>        -0.2495
     17 C13        -2.7740   -0.0025   -0.6975 C.2       1 <0>         0.1491
     18 N2         -2.1358    0.9309   -1.4152 N.pl3     1 <0>        -0.4519
     19 C14        -1.1502    1.7810   -0.7428 C.3       1 <0>         0.0117
     20 C15         0.1445    1.1200   -0.2656 C.3       1 <0>        -0.1747
     21 C16        -0.9158    1.5467    0.7516 C.3       1 <0>        -0.1746
     22 C17        -4.3940   -1.8541   -0.4344 C.2       1 <0>         0.5033
     23 O2         -5.2223   -2.5889   -0.9362 O.co2     1 <0>        -0.5983
     24 C18        -3.5447    0.5250   -4.8068 C.ar      1 <0>         0.1808
     25 C19        -2.8515    1.5054   -5.4854 C.ar      1 <0>        -0.0092
     26 F1         -3.0762    1.6998   -6.8034 F         1 <0>        -0.1264
     27 F2         -4.4471   -0.2420   -5.4567 F         1 <0>        -0.0887
     28 F3         -0.7731    2.8830   -2.8221 F         1 <0>        -0.1033
     29 H3          0.4604    2.7731   -9.1813 H         1 <0>         0.0823
     30 H4          1.7289    4.0009   -8.9536 H         1 <0>         0.0866
     31 H5          1.8313    2.4454   -8.0943 H         1 <0>         0.1095
     32 H6          0.2391    1.9507   -6.2116 H         1 <0>         0.1284
     33 H7         -1.1134    2.2445   -7.3315 H         1 <0>         0.0804
     34 H8         -2.8322    3.8789   -6.7256 H         1 <0>         0.0779
     35 H9         -2.6994    4.7449   -5.1758 H         1 <0>         0.1284
     36 H10        -2.9583    6.0234   -7.9752 H         1 <0>         0.0822
     37 H11        -2.8658    6.9154   -6.4376 H         1 <0>         0.1095
     38 H12        -1.7088    7.2696   -7.7430 H         1 <0>         0.0867
     39 H13        -2.5441   -0.1010    0.3531 H         1 <0>         0.1876
     40 H14        -1.0870    2.8063   -1.1074 H         1 <0>         0.1668
     41 H15         0.2627    0.0525   -0.4515 H         1 <0>         0.1051
     42 H16         1.0594    1.7102   -0.3165 H         1 <0>         0.1110
     43 H17        -1.4951    0.7599    1.2349 H         1 <0>         0.1177
     44 H18        -0.6986    2.4179    1.3696 H         1 <0>         0.1168
     45 N3         -0.5487    4.8468   -7.8042 N.4       1 <0>        -0.5168
     46 H19        -1.1888    4.4273   -8.4886 H         1 <0>         0.4272
     47 H20        -0.0024    5.5891   -8.2567 H         1 <0>         0.4337
     48 O3         -4.0976   -1.9679    0.8759 O.co2     1 <0>        -0.7570
@<TRIPOS>BOND
     1    1    2 1
     2    1   29 1
     3    1   30 1
     4    1   31 1
     5    2    3 1
     6    2    4 1
     7    2   45 1
     8    4    5 1
     9    4   32 1
    10    4   33 1
    11    5    6 1
    12    5   10 1
    13    6    7 1
    14    6   34 1
    15    6   35 1
    16    7    8 1
    17    7    9 1
    18    7   45 1
    19    9   36 1
    20    9   37 1
    21    9   38 1
    22   10   25 ar
    23   10   11 ar
    24   11   12 ar
    25   11   28 1
    26   12   18 1
    27   12   13 ar
    28   13   14 1
    29   13   24 ar
    30   14   15 2
    31   14   16 1
    32   16   17 2
    33   16   22 1
    34   17   18 1
    35   17   39 1
    36   18   19 1
    37   19   21 1
    38   19   20 1
    39   19   40 1
    40   20   21 1
    41   20   41 1
    42   20   42 1
    43   21   43 1
    44   21   44 1
    45   22   23 2
    46   22   48 1
    47   24   25 ar
    48   24   27 1
    49   25   26 1
    50   45   46 1
    51   45   47 1
