@<TRIPOS>MOLECULE
ZINC03875439
   46    49     0     0     0
SMALL
USER_CHARGES

@<TRIPOS>ATOM
      1 C1         -0.0184    1.5028    0.0103 C.3       1 <0>        -0.0996
      2 C2          0.0021   -0.0041    0.0020 C.2       1 <0>         0.1302
      3 C3         -1.0924   -0.8180    0.0026 C.2       1 <0>        -0.2959
      4 C4         -0.5925   -2.2011   -0.0072 C.2       1 <0>         0.1874
      5 N1          0.7146   -2.1331   -0.0128 N.2       1 <0>        -0.3015
      6 O1          1.0949   -0.7716   -0.0130 O.3       1 <0>        -0.0702
      7 C5         -1.4127   -3.4369   -0.0101 C.ar      1 <0>        -0.0442
      8 C6         -2.6219   -3.4755    0.6819 C.ar      1 <0>        -0.0811
      9 C7         -3.3812   -4.6279    0.6753 C.ar      1 <0>        -0.1153
     10 C8         -2.9441   -5.7434   -0.0160 C.ar      1 <0>        -0.0985
     11 C9         -1.7446   -5.7110   -0.7042 C.ar      1 <0>        -0.1231
     12 C10        -0.9800   -4.5620   -0.7096 C.ar      1 <0>        -0.0805
     13 C11        -2.5027   -0.3937    0.0114 C.2       1 <0>         0.5990
     14 O2         -3.0900   -0.2132   -1.0382 O.2       1 <0>        -0.5122
     15 N2         -3.1425   -0.2054    1.1826 N.am      1 <0>        -0.6925
     16 C12        -4.5454    0.2166    1.1914 C.3       1 <0>         0.0739
     17 H1         -5.0759   -0.0699    0.2833 H         1 <0>         0.1320
     18 C13        -5.2839   -0.1653    2.4694 C.3       1 <0>         0.1203
     19 H2         -6.2863   -0.5764    2.3495 H         1 <0>         0.1586
     20 N3         -5.1702    1.2731    2.7903 N.am      1 <0>        -0.5143
     21 C14        -4.7315    1.6675    1.5607 C.2       1 <0>         0.5118
     22 O3         -4.5628    2.7307    1.0019 O.2       1 <0>        -0.4256
     23 C15        -4.3026    1.6081    3.9248 C.3       1 <0>         0.0238
     24 H3         -3.3043    1.8386    3.5530 H         1 <0>         0.0677
     25 C16        -4.2070    0.4371    4.9417 C.3       1 <0>         0.0500
     26 S1         -4.2355   -0.9896    3.7345 S.3       1 <0>        -0.3196
     27 C17        -5.4189    0.4020    5.8748 C.3       1 <0>        -0.1297
     28 C18        -2.8966    0.4824    5.7301 C.3       1 <0>        -0.1265
     29 C19        -4.8573    2.8211    4.6263 C.2       1 <0>         0.5129
     30 O4         -5.9532    3.2565    4.3166 O.co2     1 <0>        -0.6564
     31 O5         -4.2102    3.3670    5.5037 O.co2     1 <0>        -0.6854
     32 H4          1.0042    1.8801    0.0026 H         1 <0>         0.0956
     33 H5         -0.5455    1.8639   -0.8728 H         1 <0>         0.1054
     34 H6         -0.5286    1.8543    0.9071 H         1 <0>         0.1033
     35 H7         -2.9638   -2.6054    1.2226 H         1 <0>         0.1309
     36 H8         -4.3184   -4.6589    1.2113 H         1 <0>         0.1324
     37 H9         -3.5413   -6.6432   -0.0181 H         1 <0>         0.1283
     38 H10        -1.4078   -6.5851   -1.2417 H         1 <0>         0.1299
     39 H11        -0.0460   -4.5362   -1.2513 H         1 <0>         0.1289
     40 H12        -2.6741   -0.3494    2.0198 H         1 <0>         0.4154
     41 H13        -6.3272    0.2733    5.2861 H         1 <0>         0.0645
     42 H14        -5.3169   -0.4298    6.5718 H         1 <0>         0.0606
     43 H15        -5.4762    1.3374    6.4314 H         1 <0>         0.0854
     44 H16        -2.8356    1.4216    6.2799 H         1 <0>         0.0989
     45 H17        -2.8653   -0.3517    6.4311 H         1 <0>         0.0647
     46 H18        -2.0552    0.4095    5.0410 H         1 <0>         0.0602
@<TRIPOS>BOND
     1    1    2 1
     2    1   32 1
     3    1   33 1
     4    1   34 1
     5    2    6 1
     6    2    3 2
     7    3    4 1
     8    3   13 1
     9    4    5 2
    10    4    7 1
    11    5    6 1
    12    7   12 ar
    13    7    8 ar
    14    8    9 ar
    15    8   35 1
    16    9   10 ar
    17    9   36 1
    18   10   11 ar
    19   10   37 1
    20   11   12 ar
    21   11   38 1
    22   12   39 1
    23   13   14 2
    24   13   15 am
    25   15   16 1
    26   15   40 1
    27   16   17 1
    28   16   21 1
    29   16   18 1
    30   18   19 1
    31   18   26 1
    32   18   20 1
    33   20   21 am
    34   20   23 1
    35   21   22 2
    36   23   24 1
    37   23   25 1
    38   23   29 1
    39   25   26 1
    40   25   27 1
    41   25   28 1
    42   27   41 1
    43   27   42 1
    44   27   43 1
    45   28   44 1
    46   28   45 1
    47   28   46 1
    48   29   30 2
    49   29   31 1
