@<TRIPOS>MOLECULE
ZINC00001894
   44    46     0     0     0
SMALL
USER_CHARGES

@<TRIPOS>ATOM
      1 C1         -0.0187    1.5258    0.0104 C.3       1 <0>        -0.1745
      2 C2          0.0021   -0.0041    0.0020 C.3       1 <0>         0.0882
      3 N1         -1.3723   -0.5112    0.0124 N.pl3     1 <0>        -0.4932
      4 C3         -1.9640   -0.7340    1.1919 C.2       1 <0>         0.1495
      5 C4         -3.2572   -1.2114    1.2875 C.2       1 <0>        -0.2845
      6 C5         -4.0090   -1.4834    0.0501 C.2       1 <0>         0.4107
      7 O1         -5.1521   -1.9047    0.0814 O.2       1 <0>        -0.4368
      8 C6         -3.3216   -1.2243   -1.2260 C.ar      1 <0>        -0.1627
      9 C7         -2.0034   -0.7332   -1.1939 C.ar      1 <0>         0.2061
     10 C8         -1.3444   -0.4805   -2.3909 C.ar      1 <0>        -0.1568
     11 C9         -1.9911   -0.7088   -3.5951 C.ar      1 <0>         0.1659
     12 C10        -3.3021   -1.1916   -3.6164 C.ar      1 <0>         0.0358
     13 C11        -3.9589   -1.4546   -2.4475 C.ar      1 <0>        -0.0519
     14 F1         -3.9194   -1.4093   -4.7982 F         1 <0>        -0.1446
     15 N2         -1.3292   -0.4545   -4.7937 N.pl3     1 <0>        -0.6718
     16 C12        -1.4013    0.8692   -5.4315 C.3       1 <0>         0.1196
     17 C13        -1.7920    0.6797   -6.9010 C.3       1 <0>        -0.0244
     18 N3         -0.8528   -0.2507   -7.5401 N.4       1 <0>        -0.3811
     19 C14        -0.9692   -1.5794   -6.9259 C.3       1 <0>        -0.0247
     20 C15        -0.5331   -1.5001   -5.4548 C.3       1 <0>         0.1201
     21 C16        -1.1608   -0.3471   -8.9732 C.3       1 <0>        -0.0459
     22 C17        -3.8708   -1.4439    2.5989 C.2       1 <0>         0.5339
     23 O2         -3.2368   -1.2149    3.6206 O.co2     1 <0>        -0.6972
     24 O3         -5.0172   -1.8671    2.6718 O.co2     1 <0>        -0.6601
     25 H1          1.0039    1.9031    0.0027 H         1 <0>         0.0750
     26 H2         -0.5459    1.8868   -0.8726 H         1 <0>         0.0586
     27 H3         -0.5289    1.8773    0.9072 H         1 <0>         0.0708
     28 H4          0.5123   -0.3556   -0.8948 H         1 <0>         0.0872
     29 H5          0.5293   -0.3651    0.8851 H         1 <0>         0.0990
     30 H6         -1.4126   -0.5346    2.0989 H         1 <0>         0.1725
     31 H7         -0.3312   -0.1069   -2.3828 H         1 <0>         0.1431
     32 H8         -4.9720   -1.8282   -2.4678 H         1 <0>         0.1529
     33 H9         -2.1526    1.4778   -4.9283 H         1 <0>         0.1171
     34 H10        -0.4290    1.3582   -5.3712 H         1 <0>         0.0804
     35 H11        -2.8019    0.2738   -6.9591 H         1 <0>         0.1327
     36 H12        -1.7565    1.6411   -7.4134 H         1 <0>         0.1362
     37 H13        -2.0040   -1.9169   -6.9832 H         1 <0>         0.1329
     38 H14        -0.3274   -2.2826   -7.4566 H         1 <0>         0.1359
     39 H15         0.5253   -1.2463   -5.3967 H         1 <0>         0.0810
     40 H16        -0.7101   -2.4587   -4.9670 H         1 <0>         0.1171
     41 H17        -1.0670    0.6372   -9.4320 H         1 <0>         0.1225
     42 H18        -0.4642   -1.0375   -9.4489 H         1 <0>         0.1225
     43 H19        -2.1796   -0.7124   -9.1022 H         1 <0>         0.1208
     44 H20         0.0893    0.0911   -7.4233 H         1 <0>         0.4222
@<TRIPOS>BOND
     1    1    2 1
     2    1   25 1
     3    1   26 1
     4    1   27 1
     5    2    3 1
     6    2   28 1
     7    2   29 1
     8    3    9 1
     9    3    4 1
    10    4    5 2
    11    4   30 1
    12    5    6 1
    13    5   22 1
    14    6    7 2
    15    6    8 1
    16    8   13 ar
    17    8    9 ar
    18    9   10 ar
    19   10   11 ar
    20   10   31 1
    21   11   12 ar
    22   11   15 1
    23   12   13 ar
    24   12   14 1
    25   13   32 1
    26   15   20 1
    27   15   16 1
    28   16   17 1
    29   16   33 1
    30   16   34 1
    31   17   18 1
    32   17   35 1
    33   17   36 1
    34   18   19 1
    35   18   21 1
    36   18   44 1
    37   19   20 1
    38   19   37 1
    39   19   38 1
    40   20   39 1
    41   20   40 1
    42   21   41 1
    43   21   42 1
    44   21   43 1
    45   22   23 2
    46   22   24 1
