@<TRIPOS>MOLECULE
ZINC00049137
   30    31     0     0     0
SMALL
USER_CHARGES

@<TRIPOS>ATOM
      1 C1         -0.0173    1.4248    0.0099 C.3       1 <0>         0.0453
      2 O1          0.0021   -0.0041    0.0020 O.3       1 <0>        -0.3136
      3 C2          0.6242   -0.6168    1.0388 C.ar      1 <0>         0.3524
      4 C3          0.6907   -2.0030    1.1005 C.ar      1 <0>        -0.2887
      5 C4          1.3410   -2.5847    2.1856 C.ar      1 <0>         0.4874
      6 N1          1.8720   -1.7967    3.1183 N.ar      1 <0>        -0.6381
      7 C5          1.7873   -0.4857    3.0227 C.ar      1 <0>         0.3579
      8 N2          1.1843    0.1009    2.0084 N.ar      1 <0>        -0.6451
      9 N3          1.4339   -3.9635    2.2933 N.2       1 <0>        -1.0622
     10 S1          2.2102   -4.6423    3.5891 S.o2      1 <0>         2.6381
     11 O2          3.5805   -4.2835    3.4752 O.2       1 <0>        -1.0205
     12 O3          1.4337   -4.3294    4.7373 O.2       1 <0>        -1.0204
     13 C6          2.1291   -6.3908    3.3875 C.ar      1 <0>        -0.6774
     14 C7          1.0615   -7.0968    3.9110 C.ar      1 <0>         0.0233
     15 C8          0.9948   -8.4674    3.7548 C.ar      1 <0>        -0.2218
     16 C9          2.0017   -9.1367    3.0709 C.ar      1 <0>         0.2456
     17 C10         3.0728   -8.4244    2.5463 C.ar      1 <0>        -0.2218
     18 C11         3.1304   -7.0533    2.7012 C.ar      1 <0>         0.0233
     19 N4          1.9377  -10.5229    2.9115 N.pl3     1 <0>        -0.8769
     20 H1          1.0053    1.8021    0.0021 H         1 <0>         0.0534
     21 H2         -0.5445    1.7859   -0.8732 H         1 <0>         0.0851
     22 H3         -0.5275    1.7763    0.9067 H         1 <0>         0.0535
     23 H4          0.2490   -2.6137    0.3270 H         1 <0>         0.1328
     24 H5          2.2280    0.1261    3.7960 H         1 <0>         0.1781
     25 H6          0.2791   -6.5759    4.4429 H         1 <0>         0.1353
     26 H7          0.1609   -9.0182    4.1642 H         1 <0>         0.1226
     27 H8          3.8575   -8.9418    2.0144 H         1 <0>         0.1226
     28 H9          3.9605   -6.4984    2.2898 H         1 <0>         0.1353
     29 H10         1.1894  -11.0192    3.2785 H         1 <0>         0.3973
     30 H11         2.6414  -10.9891    2.4337 H         1 <0>         0.3973
@<TRIPOS>BOND
     1    1    2 1
     2    1   20 1
     3    1   21 1
     4    1   22 1
     5    2    3 1
     6    3    8 ar
     7    3    4 ar
     8    4    5 ar
     9    4   23 1
    10    5    6 ar
    11    5    9 1
    12    6    7 ar
    13    7    8 ar
    14    7   24 1
    15    9   10 1
    16   10   11 2
    17   10   12 2
    18   10   13 1
    19   13   18 ar
    20   13   14 ar
    21   14   15 ar
    22   14   25 1
    23   15   16 ar
    24   15   26 1
    25   16   17 ar
    26   16   19 1
    27   17   18 ar
    28   17   27 1
    29   18   28 1
    30   19   29 1
    31   19   30 1
