@<TRIPOS>MOLECULE
ZINC85537026
  126   128     0     0     0
SMALL
USER_CHARGES

@<TRIPOS>ATOM
      1 C1         -3.2533    0.3954    1.1195 C.3       1 <0>        -0.1595
      2 C2         -3.3386   -1.1121    0.8725 C.3       1 <0>        -0.1384
      3 C3         -2.6462   -1.4517   -0.4439 C.3       1 <0>         0.0657
      4 H1         -3.0891   -0.8450   -1.2461 H         1 <0>         0.0861
      5 C4         -2.8709   -2.9311   -0.7966 C.3       1 <0>         0.1016
      6 C5         -2.2704   -3.8271    0.2682 C.3       1 <0>         0.1097
      7 H2         -2.9980   -3.8433    1.1215 H         1 <0>         0.0960
      8 C6         -2.0204   -5.2708   -0.1009 C.3       1 <0>         0.0500
      9 H3         -2.4732   -5.8924    0.7169 H         1 <0>         0.1266
     10 N1         -0.5797   -5.6096   -0.0597 N.4       1 <0>        -0.3649
     11 C7          0.1398   -4.9393   -1.1279 C.3       1 <0>        -0.0104
     12 C8          1.6030   -4.6124   -0.8576 C.3       1 <0>        -0.0932
     13 H4          2.2280   -5.2146   -1.5313 H         1 <0>         0.1096
     14 C9          1.8424   -3.1253   -1.1336 C.3       1 <0>        -0.0961
     15 C10         3.0818   -2.9185   -2.0040 C.3       1 <0>         0.1422
     16 C11         3.0405   -1.5298   -2.6428 C.3       1 <0>         0.0782
     17 H5          2.3226   -1.5435   -3.4637 H         1 <0>         0.0882
     18 C12         2.6354   -0.4642   -1.6291 C.3       1 <0>        -0.1202
     19 H6          2.3179   -0.9193   -0.6980 H         1 <0>         0.0968
     20 C13         1.4862    0.3704   -2.2053 C.3       1 <0>         0.0982
     21 H7          1.0935   -0.1219   -3.0963 H         1 <0>         0.0957
     22 C14         0.3817    0.5094   -1.1548 C.3       1 <0>        -0.1141
     23 H8          0.7917    0.3694   -0.1557 H         1 <0>         0.1120
     24 C15        -0.6911   -0.5169   -1.3985 C.2       1 <0>         0.4791
     25 O1         -1.0426   -0.7701   -2.5363 O.2       1 <0>        -0.4801
     26 O2         -1.2545   -1.1641   -0.3697 O.3       1 <0>        -0.3464
     27 C16        -0.2381    1.9055   -1.2621 C.3       1 <0>        -0.1543
     28 O3          1.9752    1.6625   -2.5674 O.3       1 <0>        -0.3413
     29 C17         1.2938    2.2525   -3.6816 C.3       1 <0>         0.2511
     30 H9          0.2300    2.2860   -3.4631 H         1 <0>         0.0713
     31 C18         1.8367    3.6652   -3.9057 C.3       1 <0>        -0.1624
     32 C19         1.1461    4.3017   -5.1105 C.3       1 <0>         0.1343
     33 C20         1.2298    3.4025   -6.3369 C.3       1 <0>         0.0904
     34 H10         0.4951    3.7568   -7.0784 H         1 <0>         0.0782
     35 C21         0.9652    1.9332   -6.0569 C.3       1 <0>         0.0791
     36 H11         1.4315    1.3513   -6.8809 H         1 <0>         0.1046
     37 O4          1.5438    1.4748   -4.8474 O.3       1 <0>        -0.3930
     38 C22        -0.5317    1.6220   -6.0958 C.3       1 <0>        -0.1907
     39 O5          2.5309    3.5416   -6.9299 O.3       1 <0>        -0.5457
     40 C23        -0.3062    4.6411   -4.7728 C.3       1 <0>        -0.1914
     41 O6          1.8273    5.5366   -5.4114 O.3       1 <0>        -0.3598
     42 C24         1.8125    6.4840   -4.3417 C.3       1 <0>         0.0174
     43 C25         3.8286    0.4595   -1.3599 C.3       1 <0>        -0.1314
     44 O7          4.3365   -1.2160   -3.1621 O.3       1 <0>        -0.3541
     45 C26         4.3128   -0.3559   -4.3031 C.3       1 <0>         0.2289
     46 H12         3.7581    0.5511   -4.0631 H         1 <0>         0.0953
     47 C27         5.7464    0.0112   -4.6955 C.3       1 <0>         0.0689
     48 H13         6.3132   -0.8979   -4.8963 H         1 <0>         0.0917
     49 C28         5.7153    0.8835   -5.9543 C.3       1 <0>         0.0340
     50 H14         5.1912    1.8148   -5.7397 H         1 <0>         0.1504
     51 C29         4.9831    0.1282   -7.0677 C.3       1 <0>        -0.1806
     52 C30         3.5791   -0.2435   -6.5836 C.3       1 <0>         0.0987
     53 H15         3.0146    0.6651   -6.3737 H         1 <0>         0.0896
     54 O8          3.6789   -1.0279   -5.3933 O.3       1 <0>        -0.3820
     55 C31         2.8624   -1.0503   -7.6681 C.3       1 <0>        -0.1524
     56 N2          7.0895    1.1800   -6.3806 N.4       1 <0>        -0.3789
     57 C32         7.7518   -0.0631   -6.7976 C.3       1 <0>        -0.0601
     58 C33         7.0600    2.1212   -7.5081 C.3       1 <0>        -0.0526
     59 O9          6.3638    0.7330   -3.6279 O.3       1 <0>        -0.5572
     60 C34         4.3467   -3.0406   -1.1500 C.3       1 <0>        -0.1798
     61 O10         3.1222   -3.9001   -3.0446 O.3       1 <0>        -0.5534
     62 C35         2.0449   -4.9244    0.5680 C.3       1 <0>        -0.1740
     63 C36        -0.4707   -7.0742   -0.2371 C.3       1 <0>        -0.0572
     64 C37        -2.6397   -5.7606   -1.3942 C.3       1 <0>        -0.1869
     65 O11        -1.0713   -3.2464    0.8009 O.3       1 <0>        -0.5660
     66 C38        -4.3947   -3.1409   -0.8487 C.3       1 <0>        -0.2015
     67 O12        -2.3174   -3.1579   -2.0896 O.3       1 <0>        -0.5432
     68 H16        -2.2070    0.6965    1.1712 H         1 <0>         0.0617
     69 H17        -3.7441    0.9257    0.3035 H         1 <0>         0.0575
     70 H18        -3.7480    0.6380    2.0600 H         1 <0>         0.0712
     71 H19        -2.8478   -1.6424    1.6886 H         1 <0>         0.0747
     72 H20        -4.3850   -1.4132    0.8209 H         1 <0>         0.0991
     73 H21         0.1051   -5.5729   -2.0349 H         1 <0>         0.1152
     74 H22        -0.3678   -4.0087   -1.3992 H         1 <0>         0.1479
     75 H23         0.9753   -2.7109   -1.6417 H         1 <0>         0.0764
     76 H24         1.9903   -2.6127   -0.1795 H         1 <0>         0.0878
     77 H25        -0.7873    1.9881   -2.2000 H         1 <0>         0.0628
     78 H26        -0.9196    2.0657   -0.4266 H         1 <0>         0.0712
     79 H27         0.5515    2.6565   -1.2361 H         1 <0>         0.0937
     80 H28         1.6495    4.2698   -3.0159 H         1 <0>         0.0882
     81 H29         2.9125    3.6166   -4.0830 H         1 <0>         0.0921
     82 H30        -0.9277    1.8642   -7.0820 H         1 <0>         0.0780
     83 H31        -0.6880    0.5627   -5.8916 H         1 <0>         0.0760
     84 H32        -1.0463    2.2172   -5.3414 H         1 <0>         0.0631
     85 H33         2.6635    2.9988   -7.7191 H         1 <0>         0.3700
     86 H34        -0.3310    5.3414   -3.9379 H         1 <0>         0.0783
     87 H35        -0.7850    5.0938   -5.6411 H         1 <0>         0.0787
     88 H36        -0.8379    3.7299   -4.4986 H         1 <0>         0.0683
     89 H37         2.2999    6.0525   -3.4674 H         1 <0>         0.0440
     90 H38         2.3449    7.3848   -4.6469 H         1 <0>         0.0928
     91 H39         0.7815    6.7373   -4.0949 H         1 <0>         0.0483
     92 H40         4.1344    0.9385   -2.2901 H         1 <0>         0.0683
     93 H41         3.5417    1.2220   -0.6358 H         1 <0>         0.0609
     94 H42         4.6583   -0.1252   -0.9625 H         1 <0>         0.0584
     95 H43         4.9079    0.7634   -7.9502 H         1 <0>         0.1106
     96 H44         5.5346   -0.7786   -7.3163 H         1 <0>         0.1028
     97 H45         3.4267   -1.9590   -7.8777 H         1 <0>         0.0711
     98 H46         1.8628   -1.3148   -7.3233 H         1 <0>         0.0759
     99 H47         2.7870   -0.4519   -8.5761 H         1 <0>         0.0800
    100 H48         7.7737   -0.7615   -5.9610 H         1 <0>         0.1213
    101 H49         7.2018   -0.5072   -7.6273 H         1 <0>         0.1258
    102 H50         8.7714    0.1569   -7.1140 H         1 <0>         0.1305
    103 H51         6.5967    3.0551   -7.1898 H         1 <0>         0.1276
    104 H52         8.0781    2.3169   -7.8447 H         1 <0>         0.1295
    105 H53         6.4834    1.6899   -8.3264 H         1 <0>         0.1228
    106 H54         6.4131    0.2406   -2.7971 H         1 <0>         0.4104
    107 H55         4.3862   -4.0321   -0.6989 H         1 <0>         0.0658
    108 H56         5.2249   -2.8919   -1.7782 H         1 <0>         0.0697
    109 H57         4.3293   -2.2847   -0.3649 H         1 <0>         0.0686
    110 H58         3.9243   -3.8688   -3.5838 H         1 <0>         0.3850
    111 H59         1.9067   -5.9872    0.7667 H         1 <0>         0.0568
    112 H60         3.0972   -4.6663    0.6869 H         1 <0>         0.0841
    113 H61         1.4466   -4.3429    1.2693 H         1 <0>         0.0683
    114 H62        -0.7872   -7.3427   -1.2450 H         1 <0>         0.1247
    115 H63         0.5640   -7.3824   -0.0871 H         1 <0>         0.1231
    116 H64        -1.1085   -7.5768    0.4900 H         1 <0>         0.1222
    117 H65        -2.1641   -5.2595   -2.2373 H         1 <0>         0.1030
    118 H66        -2.4938   -6.8372   -1.4820 H         1 <0>         0.0845
    119 H67        -3.7066   -5.5374   -1.3936 H         1 <0>         0.1035
    120 H68        -1.2024   -2.3811    1.2121 H         1 <0>         0.4062
    121 H69        -4.8254   -2.4893   -1.6089 H         1 <0>         0.0764
    122 H70        -4.6101   -4.1803   -1.0965 H         1 <0>         0.0806
    123 H71        -4.8278   -2.9017    0.1226 H         1 <0>         0.0818
    124 H72        -2.7140   -2.6186   -2.7874 H         1 <0>         0.3935
    125 H73        -0.2687   -5.3746    0.8685 H         1 <0>         0.4271
    126 H74         7.5986    1.5911   -5.6126 H         1 <0>         0.4359
@<TRIPOS>BOND
     1    1    2 1
     2    1   68 1
     3    1   69 1
     4    1   70 1
     5    2    3 1
     6    2   71 1
     7    2   72 1
     8    3    4 1
     9    3   26 1
    10    3    5 1
    11    5    6 1
    12    5   66 1
    13    5   67 1
    14    6    7 1
    15    6    8 1
    16    6   65 1
    17    8    9 1
    18    8   10 1
    19    8   64 1
    20   10   11 1
    21   10   63 1
    22   10  125 1
    23   11   12 1
    24   11   73 1
    25   11   74 1
    26   12   13 1
    27   12   14 1
    28   12   62 1
    29   14   15 1
    30   14   75 1
    31   14   76 1
    32   15   16 1
    33   15   60 1
    34   15   61 1
    35   16   17 1
    36   16   18 1
    37   16   44 1
    38   18   19 1
    39   18   20 1
    40   18   43 1
    41   20   21 1
    42   20   22 1
    43   20   28 1
    44   22   23 1
    45   22   24 1
    46   22   27 1
    47   24   25 2
    48   24   26 1
    49   27   77 1
    50   27   78 1
    51   27   79 1
    52   28   29 1
    53   29   30 1
    54   29   37 1
    55   29   31 1
    56   31   32 1
    57   31   80 1
    58   31   81 1
    59   32   33 1
    60   32   40 1
    61   32   41 1
    62   33   34 1
    63   33   35 1
    64   33   39 1
    65   35   36 1
    66   35   37 1
    67   35   38 1
    68   38   82 1
    69   38   83 1
    70   38   84 1
    71   39   85 1
    72   40   86 1
    73   40   87 1
    74   40   88 1
    75   41   42 1
    76   42   89 1
    77   42   90 1
    78   42   91 1
    79   43   92 1
    80   43   93 1
    81   43   94 1
    82   44   45 1
    83   45   46 1
    84   45   54 1
    85   45   47 1
    86   47   48 1
    87   47   49 1
    88   47   59 1
    89   49   50 1
    90   49   51 1
    91   49   56 1
    92   51   52 1
    93   51   95 1
    94   51   96 1
    95   52   53 1
    96   52   54 1
    97   52   55 1
    98   55   97 1
    99   55   98 1
   100   55   99 1
   101   56   57 1
   102   56   58 1
   103   56  126 1
   104   57  100 1
   105   57  101 1
   106   57  102 1
   107   58  103 1
   108   58  104 1
   109   58  105 1
   110   59  106 1
   111   60  107 1
   112   60  108 1
   113   60  109 1
   114   61  110 1
   115   62  111 1
   116   62  112 1
   117   62  113 1
   118   63  114 1
   119   63  115 1
   120   63  116 1
   121   64  117 1
   122   64  118 1
   123   64  119 1
   124   65  120 1
   125   66  121 1
   126   66  122 1
   127   66  123 1
   128   67  124 1
