@<TRIPOS>MOLECULE
ZINC03830261
   54    57     0     0     0
SMALL
USER_CHARGES

@<TRIPOS>ATOM
      1 C1         -0.0193    1.5266    0.0134 C.3       1 <0>        -0.1222
      2 C2          0.0011   -0.0032    0.0056 C.3       1 <0>         0.0310
      3 C3          0.9167   -0.5576   -1.1233 C.3       1 <0>         0.0300
      4 H1          1.7640    0.1146   -1.2587 H         1 <0>         0.0694
      5 N1          1.4135   -1.8970   -0.7930 N.am      1 <0>        -0.5059
      6 C4          1.5627   -2.1953    0.6379 C.3       1 <0>         0.1049
      7 H2          1.1300   -3.1338    0.9844 H         1 <0>         0.1553
      8 S1          0.9220   -0.6788    1.4602 S.3       1 <0>        -0.2974
      9 C5          3.0661   -2.2012    0.4242 C.3       1 <0>         0.0828
     10 H3          3.5560   -3.1218    0.7410 H         1 <0>         0.1402
     11 C6          2.7111   -2.1679   -1.0324 C.2       1 <0>         0.4952
     12 O1          3.3538   -2.3258   -2.0488 O.2       1 <0>        -0.4341
     13 N2          3.7420   -0.9937    0.9052 N.am      1 <0>        -0.6832
     14 C7          5.0439   -1.0423    1.2502 C.2       1 <0>         0.5259
     15 O2          5.6559   -2.0857    1.1626 O.2       1 <0>        -0.5264
     16 C8          5.7392    0.1998    1.7449 C.3       1 <0>         0.1903
     17 H4          5.6996    0.9697    0.9744 H         1 <0>         0.1301
     18 C9          5.0512    0.6987    2.9894 C.ar      1 <0>        -0.1053
     19 C10         5.3198    0.1100    4.2109 C.ar      1 <0>        -0.0963
     20 C11         4.6886    0.5677    5.3525 C.ar      1 <0>        -0.1204
     21 C12         3.7893    1.6144    5.2725 C.ar      1 <0>        -0.1099
     22 C13         3.5213    2.2037    4.0511 C.ar      1 <0>        -0.1100
     23 C14         4.1557    1.7489    2.9103 C.ar      1 <0>        -0.0914
     24 N3          7.1373   -0.1125    2.0518 N.am      1 <0>        -0.7130
     25 C15         8.0681    0.8617    2.0199 C.2       1 <0>         0.7323
     26 O3          7.7660    1.9789    1.6486 O.2       1 <0>        -0.5215
     27 N4          9.3338    0.5970    2.3998 N.am      1 <0>        -0.5870
     28 C16         9.8551   -0.7295    2.7617 C.3       1 <0>         0.0674
     29 C17        11.3329   -0.4636    3.1082 C.3       1 <0>         0.0949
     30 N5         11.4874    0.9846    2.9048 N.am      1 <0>        -0.7334
     31 C18        10.3182    1.4996    2.5021 C.2       1 <0>         0.7074
     32 O4         10.1636    2.6797    2.2557 O.2       1 <0>        -0.5293
     33 C19         0.1311   -0.6268   -2.4074 C.2       1 <0>         0.5140
     34 O5          0.1155    0.3285   -3.1648 O.co2     1 <0>        -0.6842
     35 O6         -0.4888   -1.6382   -2.6891 O.co2     1 <0>        -0.6577
     36 C20        -1.4137   -0.5791   -0.0817 C.3       1 <0>        -0.1235
     37 H5          1.0033    1.9037    0.0051 H         1 <0>         0.0643
     38 H6         -0.5468    1.8875   -0.8696 H         1 <0>         0.0880
     39 H7         -0.5291    1.8786    0.9103 H         1 <0>         0.0665
     40 H8          3.2525   -0.1592    0.9753 H         1 <0>         0.4170
     41 H9          6.0225   -0.7078    4.2734 H         1 <0>         0.1171
     42 H10         4.8980    0.1073    6.3067 H         1 <0>         0.1217
     43 H11         3.2956    1.9715    6.1643 H         1 <0>         0.1222
     44 H12         2.8184    3.0213    3.9886 H         1 <0>         0.1265
     45 H13         3.9492    2.2117    1.9566 H         1 <0>         0.1270
     46 H14         7.3930   -1.0205    2.2779 H         1 <0>         0.4087
     47 H15         9.3245   -1.1260    3.6274 H         1 <0>         0.0977
     48 H16         9.7774   -1.4145    1.9174 H         1 <0>         0.1005
     49 H17        11.5362   -0.7279    4.1460 H         1 <0>         0.0907
     50 H18        11.9890   -1.0165    2.4360 H         1 <0>         0.0911
     51 H19        12.3068    1.4865    3.0371 H         1 <0>         0.4357
     52 H20        -1.8857   -0.2446   -1.0056 H         1 <0>         0.0789
     53 H21        -1.3640   -1.6679   -0.0726 H         1 <0>         0.0695
     54 H22        -1.9993   -0.2349    0.7707 H         1 <0>         0.0580
@<TRIPOS>BOND
     1    1    2 1
     2    1   37 1
     3    1   38 1
     4    1   39 1
     5    2    8 1
     6    2    3 1
     7    2   36 1
     8    3    4 1
     9    3    5 1
    10    3   33 1
    11    5   11 am
    12    5    6 1
    13    6    7 1
    14    6    8 1
    15    6    9 1
    16    9   10 1
    17    9   11 1
    18    9   13 1
    19   11   12 2
    20   13   14 am
    21   13   40 1
    22   14   15 2
    23   14   16 1
    24   16   17 1
    25   16   18 1
    26   16   24 1
    27   18   23 ar
    28   18   19 ar
    29   19   20 ar
    30   19   41 1
    31   20   21 ar
    32   20   42 1
    33   21   22 ar
    34   21   43 1
    35   22   23 ar
    36   22   44 1
    37   23   45 1
    38   24   25 am
    39   24   46 1
    40   25   26 2
    41   25   27 am
    42   27   31 am
    43   27   28 1
    44   28   29 1
    45   28   47 1
    46   28   48 1
    47   29   30 1
    48   29   49 1
    49   29   50 1
    50   30   31 am
    51   30   51 1
    52   31   32 2
    53   33   34 2
    54   33   35 1
    55   36   52 1
    56   36   53 1
    57   36   54 1
