@<TRIPOS>MOLECULE
ZINC03830432
   70    74     0     0     0
SMALL
USER_CHARGES
8-[2-(4-ethyl-2,3-dioxo-piperazin-1-yl)carbonylamino-2-(4-hydroxyphenyl)-acetyl]amino-4-[(1-methyltetrazol-5-yl)sulfanylmethyl]-7-oxo-2-thia-6-azabicyclo[4.2.0]oct-4-ene-5-carboxylic acid
@<TRIPOS>ATOM
      1 C1         -4.9755   -3.5417    0.7038 C.3       1 <0>        -0.1698
      2 C2         -4.4591   -3.9542    2.0837 C.3       1 <0>         0.1056
      3 N1         -2.9983   -3.8470    2.1105 N.am      1 <0>        -0.6018
      4 C3         -2.1751   -4.9968    1.7348 C.3       1 <0>         0.0953
      5 C4         -0.9377   -4.5416    0.9670 C.3       1 <0>         0.0720
      6 N2         -0.2334   -3.4917    1.7036 N.am      1 <0>        -0.5718
      7 C5         -0.9287   -2.5588    2.3843 C.2       1 <0>         0.5149
      8 O1         -0.3568   -1.6253    2.9069 O.2       1 <0>        -0.4087
      9 C6         -2.4158   -2.6909    2.4866 C.2       1 <0>         0.5195
     10 O2         -3.0881   -1.7700    2.9020 O.2       1 <0>        -0.4768
     11 C7          1.1140   -3.4576    1.7019 C.2       1 <0>         0.7029
     12 O3          1.6993   -2.5424    2.2469 O.2       1 <0>        -0.5123
     13 N3          1.8121   -4.4383    1.0959 N.am      1 <0>        -0.7147
     14 C8          3.2733   -4.4680    1.1983 C.3       1 <0>         0.1910
     15 H1          3.5760   -4.1079    2.1816 H         1 <0>         0.1303
     16 C9          3.8696   -3.5835    0.1339 C.ar      1 <0>        -0.1136
     17 C10         3.3255   -3.5704   -1.1371 C.ar      1 <0>        -0.0791
     18 C11         3.8668   -2.7562   -2.1131 C.ar      1 <0>        -0.1447
     19 C12         4.9643   -1.9597   -1.8201 C.ar      1 <0>         0.1154
     20 C13         5.5118   -1.9789   -0.5456 C.ar      1 <0>        -0.1355
     21 C14         4.9633   -2.7906    0.4284 C.ar      1 <0>        -0.0752
     22 O4          5.5017   -1.1617   -2.7799 O.3       1 <0>        -0.5000
     23 C15         3.7614   -5.8811    1.0088 C.2       1 <0>         0.5270
     24 O5          2.9671   -6.7753    0.8079 O.2       1 <0>        -0.5233
     25 N4          5.0808   -6.1512    1.0625 N.am      1 <0>        -0.6900
     26 C16         5.5553   -7.5249    0.8782 C.3       1 <0>         0.1193
     27 H2          4.8661   -8.1303    0.2896 H         1 <0>         0.1447
     28 C17         6.9932   -7.6029    0.3925 C.3       1 <0>         0.1349
     29 H3          7.1988   -8.3505   -0.3736 H         1 <0>         0.1494
     30 N5          7.2587   -8.0010    1.8074 N.am      1 <0>        -0.5660
     31 C18         5.9799   -8.1883    2.1693 C.2       1 <0>         0.5404
     32 O6          5.4102   -8.6784    3.1214 O.2       1 <0>        -0.4200
     33 C19         8.5103   -7.9734    2.4565 C.2       1 <0>         0.1336
     34 C20         9.4963   -7.2313    1.9803 C.2       1 <0>        -0.1769
     35 C21         9.5149   -6.3893    0.7462 C.3       1 <0>        -0.0211
     36 S1          7.8345   -5.9995    0.1667 S.3       1 <0>        -0.2260
     37 C22        10.7681   -7.2357    2.7888 C.3       1 <0>        -0.0528
     38 S2         11.8025   -8.6306    2.2785 S.3       1 <0>         0.0872
     39 C23        13.1800   -8.3990    3.3526 C.2       1 <0>         0.2333
     40 N6         13.3226   -7.4440    4.2459 N.2       1 <0>        -0.3391
     41 N7         14.4441   -7.5659    4.8595 N.2       1 <0>        -0.0377
     42 N8         15.0902   -8.5882    4.4132 N.2       1 <0>        -0.1084
     43 N9         14.2884   -9.1738    3.4179 N.pl3     1 <0>        -0.3821
     44 C24        14.5889  -10.3654    2.6205 C.3       1 <0>         0.0930
     45 C25         8.7213   -8.7771    3.6740 C.2       1 <0>         0.4795
     46 O7          7.7670   -9.1762    4.3115 O.co2     1 <0>        -0.5917
     47 H4         -4.6830   -2.5118    0.4993 H         1 <0>         0.0596
     48 H5         -4.5490   -4.1980   -0.0549 H         1 <0>         0.0595
     49 H6         -6.0624   -3.6215    0.6838 H         1 <0>         0.0719
     50 H7         -4.7516   -4.9841    2.2881 H         1 <0>         0.0873
     51 H8         -4.8856   -3.2980    2.8423 H         1 <0>         0.0909
     52 H9         -1.8645   -5.5263    2.6355 H         1 <0>         0.0863
     53 H10        -2.7608   -5.6687    1.1073 H         1 <0>         0.1154
     54 H11        -1.2405   -4.1565   -0.0067 H         1 <0>         0.0955
     55 H12        -0.2700   -5.3915    0.8256 H         1 <0>         0.1151
     56 H13         1.3472   -5.1244    0.5919 H         1 <0>         0.4083
     57 H14         2.4739   -4.1940   -1.3659 H         1 <0>         0.1230
     58 H15         3.4387   -2.7431   -3.1046 H         1 <0>         0.1290
     59 H16         6.3660   -1.3595   -0.3150 H         1 <0>         0.1334
     60 H17         5.3890   -2.8056    1.4209 H         1 <0>         0.1330
     61 H18         6.1979   -1.5861   -3.2998 H         1 <0>         0.3921
     62 H19         5.7161   -5.4360    1.2232 H         1 <0>         0.4178
     63 H20        10.0465   -6.9244   -0.0406 H         1 <0>         0.1002
     64 H21        10.0411   -5.4591    0.9605 H         1 <0>         0.1223
     65 H22        11.3075   -6.3033    2.6224 H         1 <0>         0.0780
     66 H23        10.5255   -7.3313    3.8471 H         1 <0>         0.1483
     67 H24        15.1171  -10.0718    1.7133 H         1 <0>         0.0864
     68 H25        15.2140  -11.0434    3.2016 H         1 <0>         0.0991
     69 H26        13.6592  -10.8677    2.3531 H         1 <0>         0.0992
     70 O8          9.9728   -9.0692    4.0802 O.co2     1 <0>        -0.7018
@<TRIPOS>BOND
     1    1    2 1
     2    1   47 1
     3    1   48 1
     4    1   49 1
     5    2    3 1
     6    2   50 1
     7    2   51 1
     8    3    9 am
     9    3    4 1
    10    4    5 1
    11    4   52 1
    12    4   53 1
    13    5    6 1
    14    5   54 1
    15    5   55 1
    16    6    7 am
    17    6   11 am
    18    7    8 2
    19    7    9 1
    20    9   10 2
    21   11   12 2
    22   11   13 am
    23   13   14 1
    24   13   56 1
    25   14   15 1
    26   14   16 1
    27   14   23 1
    28   16   21 ar
    29   16   17 ar
    30   17   18 ar
    31   17   57 1
    32   18   19 ar
    33   18   58 1
    34   19   20 ar
    35   19   22 1
    36   20   21 ar
    37   20   59 1
    38   21   60 1
    39   22   61 1
    40   23   24 2
    41   23   25 am
    42   25   26 1
    43   25   62 1
    44   26   27 1
    45   26   31 1
    46   26   28 1
    47   28   29 1
    48   28   36 1
    49   28   30 1
    50   30   31 am
    51   30   33 1
    52   31   32 2
    53   33   34 2
    54   33   45 1
    55   34   35 1
    56   34   37 1
    57   35   36 1
    58   35   63 1
    59   35   64 1
    60   37   38 1
    61   37   65 1
    62   37   66 1
    63   38   39 1
    64   39   43 1
    65   39   40 2
    66   40   41 1
    67   41   42 2
    68   42   43 1
    69   43   44 1
    70   44   67 1
    71   44   68 1
    72   44   69 1
    73   45   46 2
    74   45   70 1
