@<TRIPOS>MOLECULE
ZINC03875417
   46    49     0     0     0
SMALL
USER_CHARGES

@<TRIPOS>ATOM
      1 C1         -0.0184    1.5028    0.0103 C.3       1 <0>        -0.1001
      2 C2          0.0021   -0.0041    0.0020 C.2       1 <0>         0.1322
      3 C3         -1.0924   -0.8180    0.0026 C.2       1 <0>        -0.2965
      4 C4         -0.5925   -2.2012   -0.0077 C.2       1 <0>         0.1761
      5 N1          0.7147   -2.1331   -0.0136 N.2       1 <0>        -0.2783
      6 O1          1.0949   -0.7716   -0.0130 O.3       1 <0>        -0.0727
      7 C5         -1.4126   -3.4367   -0.0109 C.ar      1 <0>        -0.0348
      8 C6         -2.8040   -3.3530   -0.0095 C.ar      1 <0>        -0.0670
      9 C7         -3.5621   -4.5058   -0.0124 C.ar      1 <0>        -0.1122
     10 C8         -2.9444   -5.7440   -0.0167 C.ar      1 <0>        -0.0837
     11 C9         -1.5647   -5.8344   -0.0177 C.ar      1 <0>        -0.1159
     12 C10        -0.7948   -4.6871   -0.0211 C.ar      1 <0>        -0.0068
     13 Cl1         0.9374   -4.8016   -0.0301 Cl        1 <0>        -0.0361
     14 C11        -2.5027   -0.3936    0.0126 C.2       1 <0>         0.5970
     15 O2         -3.0906   -0.2123   -1.0366 O.2       1 <0>        -0.5149
     16 N2         -3.1418   -0.2063    1.1843 N.am      1 <0>        -0.6908
     17 C12        -4.5446    0.2158    1.1942 C.3       1 <0>         0.0726
     18 H1         -5.0757   -0.0700    0.2862 H         1 <0>         0.1318
     19 C13        -5.2824   -0.1672    2.4723 C.3       1 <0>         0.1197
     20 H2         -6.2849   -0.5781    2.3527 H         1 <0>         0.1584
     21 N3         -5.1685    1.2710    2.7943 N.am      1 <0>        -0.5143
     22 C14        -4.7305    1.6664    1.5648 C.2       1 <0>         0.5120
     23 O3         -4.5621    2.7300    1.0068 O.2       1 <0>        -0.4253
     24 C15        -4.3003    1.6051    3.9286 C.3       1 <0>         0.0240
     25 H3         -3.3021    1.8358    3.5564 H         1 <0>         0.0677
     26 C16        -4.2041    0.4333    4.9444 C.3       1 <0>         0.0487
     27 S1         -4.2334   -0.9925    3.7361 S.3       1 <0>        -0.3159
     28 C17        -2.8932    0.4778    5.7321 C.3       1 <0>        -0.1264
     29 C18        -5.4155    0.3974    5.8782 C.3       1 <0>        -0.1296
     30 C19        -4.8545    2.8175    4.6314 C.2       1 <0>         0.5126
     31 O4         -5.9506    3.2531    4.3226 O.co2     1 <0>        -0.6565
     32 O5         -4.2069    3.3626    5.5088 O.co2     1 <0>        -0.6851
     33 H4          1.0042    1.8801    0.0026 H         1 <0>         0.0956
     34 H5         -0.5455    1.8639   -0.8728 H         1 <0>         0.1051
     35 H6         -0.5286    1.8543    0.9071 H         1 <0>         0.1029
     36 H7         -3.2877   -2.3874   -0.0058 H         1 <0>         0.1361
     37 H8         -4.6402   -4.4417   -0.0109 H         1 <0>         0.1391
     38 H9         -3.5423   -6.6433   -0.0190 H         1 <0>         0.1393
     39 H10        -1.0880   -6.8035   -0.0203 H         1 <0>         0.1411
     40 H11        -2.6729   -0.3509    2.0210 H         1 <0>         0.4169
     41 H12        -2.8319    1.4166    6.2827 H         1 <0>         0.0988
     42 H13        -2.8616   -0.3568    6.4325 H         1 <0>         0.0645
     43 H14        -2.0522    0.4055    5.0425 H         1 <0>         0.0602
     44 H15        -6.3241    0.2692    5.2899 H         1 <0>         0.0643
     45 H16        -5.3131   -0.4350    6.5745 H         1 <0>         0.0605
     46 H17        -5.4724    1.3324    6.4356 H         1 <0>         0.0853
@<TRIPOS>BOND
     1    1    2 1
     2    1   33 1
     3    1   34 1
     4    1   35 1
     5    2    6 1
     6    2    3 2
     7    3    4 1
     8    3   14 1
     9    4    5 2
    10    4    7 1
    11    5    6 1
    12    7   12 ar
    13    7    8 ar
    14    8    9 ar
    15    8   36 1
    16    9   10 ar
    17    9   37 1
    18   10   11 ar
    19   10   38 1
    20   11   12 ar
    21   11   39 1
    22   12   13 1
    23   14   15 2
    24   14   16 am
    25   16   17 1
    26   16   40 1
    27   17   18 1
    28   17   22 1
    29   17   19 1
    30   19   20 1
    31   19   27 1
    32   19   21 1
    33   21   22 am
    34   21   24 1
    35   22   23 2
    36   24   25 1
    37   24   26 1
    38   24   30 1
    39   26   27 1
    40   26   28 1
    41   26   29 1
    42   28   41 1
    43   28   42 1
    44   28   43 1
    45   29   44 1
    46   29   45 1
    47   29   46 1
    48   30   31 2
    49   30   32 1
