@<TRIPOS>MOLECULE
ZINC85534336
  119   121     0     0     0
SMALL
USER_CHARGES

@<TRIPOS>ATOM
      1 C1         -0.2745    2.0475   -2.1828 C.3       1 <0>        -0.1459
      2 C2         -0.0469    0.6966   -1.5017 C.3       1 <0>        -0.1503
      3 C3         -1.3864    0.1374   -1.0171 C.3       1 <0>         0.0614
      4 H1         -1.8798    0.8662   -0.3756 H         1 <0>         0.0918
      5 C4         -1.1280   -1.1485   -0.2112 C.3       1 <0>         0.1498
      6 C5         -2.2006   -1.2832    0.8544 C.3       1 <0>         0.1423
      7 H2         -3.0301   -0.6004    0.6093 H         1 <0>         0.0494
      8 C6         -2.7787   -2.6798    1.0542 C.3       1 <0>        -0.1688
      9 H3         -2.7985   -3.2709    0.1571 H         1 <0>         0.1110
     10 C7         -4.1887   -2.5153    1.5808 C.2       1 <0>         0.3639
     11 O1         -4.3748   -1.6680    2.4369 O.2       1 <0>        -0.4610
     12 C8         -5.3598   -3.3212    1.1099 C.3       1 <0>        -0.1318
     13 H4         -5.8935   -3.6384    2.0458 H         1 <0>         0.0977
     14 C9         -6.3584   -2.4818    0.3389 C.3       1 <0>        -0.1262
     15 C10        -6.0964   -2.3195   -1.1515 C.3       1 <0>         0.1362
     16 C11        -6.8920   -1.1002   -1.6465 C.3       1 <0>         0.1197
     17 H5         -6.7506   -0.2807   -0.9400 H         1 <0>         0.0809
     18 C12        -6.4353   -0.6635   -3.0364 C.3       1 <0>        -0.1032
     19 H6         -5.8698   -1.4484   -3.5297 H         1 <0>         0.1040
     20 C13        -5.5951    0.6116   -2.9301 C.3       1 <0>         0.1064
     21 H7         -5.5116    0.9102   -1.8838 H         1 <0>         0.0789
     22 C14        -4.1998    0.3815   -3.5094 C.3       1 <0>        -0.1138
     23 H8         -4.0821   -0.6613   -3.8047 H         1 <0>         0.1139
     24 C15        -3.1597    0.7355   -2.4758 C.2       1 <0>         0.4623
     25 O2         -3.1734    1.8237   -1.9535 O.2       1 <0>        -0.4912
     26 O3         -2.2165   -0.1593   -2.1395 O.3       1 <0>        -0.3385
     27 C16        -4.0060    1.2716   -4.7411 C.3       1 <0>        -0.1384
     28 O4         -6.2436    1.6545   -3.6640 O.3       1 <0>        -0.3402
     29 C17        -6.0056    2.9684   -3.1435 C.3       1 <0>         0.2565
     30 H9         -4.9331    3.1323   -3.0848 H         1 <0>         0.0758
     31 C18        -6.6520    3.9968   -4.0737 C.3       1 <0>        -0.1627
     32 C19        -6.4380    5.4044   -3.5200 C.3       1 <0>         0.1346
     33 C20        -6.8937    5.5055   -2.0703 C.3       1 <0>         0.0916
     34 H10        -6.4693    6.4255   -1.6359 H         1 <0>         0.0736
     35 C21        -6.4876    4.3277   -1.2013 C.3       1 <0>         0.0851
     36 H11        -7.1802    4.3046   -0.3325 H         1 <0>         0.1004
     37 O5         -6.6023    3.0761   -1.8556 O.3       1 <0>        -0.3951
     38 C22        -5.0805    4.5171   -0.6327 C.3       1 <0>        -0.1873
     39 O6         -8.3234    5.6426   -2.0388 O.3       1 <0>        -0.5446
     40 C23        -4.9730    5.8169   -3.6684 C.3       1 <0>        -0.1906
     41 O7         -7.2328    6.3159   -4.3055 O.3       1 <0>        -0.3611
     42 C24        -6.8970    6.3312   -5.6944 C.3       1 <0>         0.0181
     43 C25        -7.6766   -0.3643   -3.8916 C.3       1 <0>        -0.1219
     44 O8         -8.2818   -1.4398   -1.6912 O.3       1 <0>        -0.3289
     45 C26        -9.1148   -0.5838   -0.9067 C.3       1 <0>         0.2264
     46 H12        -8.9246    0.4550   -1.1762 H         1 <0>         0.0758
     47 C27       -10.5849   -0.9192   -1.1719 C.3       1 <0>         0.0724
     48 H13       -10.7664   -1.9689   -0.9412 H         1 <0>         0.0961
     49 C28       -11.4695   -0.0393   -0.2834 C.3       1 <0>         0.0328
     50 H14       -11.3248    1.0082   -0.5480 H         1 <0>         0.1476
     51 C29       -11.0789   -0.2564    1.1817 C.3       1 <0>        -0.1787
     52 C30        -9.5898    0.0534    1.3560 C.3       1 <0>         0.1033
     53 H15        -9.4059    1.1007    1.1164 H         1 <0>         0.0750
     54 O9         -8.8259   -0.7772    0.4793 O.3       1 <0>        -0.3837
     55 C31        -9.1782   -0.2185    2.8043 C.3       1 <0>        -0.1503
     56 N1        -12.8790   -0.4050   -0.4774 N.4       1 <0>        -0.3788
     57 C32       -13.1058   -1.7657    0.0274 C.3       1 <0>        -0.0601
     58 C33       -13.7348    0.5380    0.2549 C.3       1 <0>        -0.0519
     59 O10       -10.8906   -0.6725   -2.5459 O.3       1 <0>        -0.5595
     60 C34        -4.6171   -2.0991   -1.4461 C.3       1 <0>        -0.2030
     61 O11        -6.5650   -3.4702   -1.8632 O.3       1 <0>        -0.5430
     62 C35        -4.9727   -4.6156    0.4172 C.3       1 <0>        -0.1628
     63 C36        -1.9562   -3.4132    2.1267 C.3       1 <0>        -0.1373
     64 O12        -1.6552   -0.8393    2.1119 O.3       1 <0>        -0.5376
     65 C37        -1.0534   -2.3251   -1.1755 C.3       1 <0>        -0.1792
     66 O13         0.1508   -1.0072    0.4341 O.3       1 <0>        -0.5282
     67 H16         0.6796    2.4458   -2.5279 H         1 <0>         0.0606
     68 H17        -0.9430    1.9173   -3.0338 H         1 <0>         0.0481
     69 H18        -0.7223    2.7420   -1.4720 H         1 <0>         0.0604
     70 H19         0.4009    0.0021   -2.2125 H         1 <0>         0.0762
     71 H20         0.6216    0.8268   -0.6506 H         1 <0>         0.0953
     72 H21        -7.3625   -2.9174    0.4710 H         1 <0>         0.0906
     73 H22        -6.3992   -1.4782    0.7932 H         1 <0>         0.0776
     74 H23        -4.1125    2.3177   -4.4538 H         1 <0>         0.0655
     75 H24        -3.0110    1.1079   -5.1547 H         1 <0>         0.0646
     76 H25        -4.7568    1.0226   -5.4911 H         1 <0>         0.0858
     77 H26        -6.2004    3.9217   -5.0651 H         1 <0>         0.0858
     78 H27        -7.7211    3.7926   -4.1533 H         1 <0>         0.0940
     79 H28        -5.0526    5.4221   -0.0259 H         1 <0>         0.0728
     80 H29        -4.8193    3.6575   -0.0154 H         1 <0>         0.0717
     81 H30        -4.3667    4.6066   -1.4516 H         1 <0>         0.0674
     82 H31        -8.6922    5.7131   -1.1477 H         1 <0>         0.3726
     83 H32        -4.6968    5.8039   -4.7227 H         1 <0>         0.0760
     84 H33        -4.8364    6.8221   -3.2694 H         1 <0>         0.0758
     85 H34        -4.3415    5.1189   -3.1187 H         1 <0>         0.0727
     86 H35        -7.5392    7.0412   -6.2156 H         1 <0>         0.0901
     87 H36        -5.8551    6.6287   -5.8131 H         1 <0>         0.0464
     88 H37        -7.0407    5.3355   -6.1140 H         1 <0>         0.0440
     89 H38        -8.2289    0.4663   -3.4522 H         1 <0>         0.0579
     90 H39        -7.3662   -0.0998   -4.9025 H         1 <0>         0.0621
     91 H40        -8.3150   -1.2470   -3.9268 H         1 <0>         0.0597
     92 H41       -11.6657    0.4069    1.8173 H         1 <0>         0.1104
     93 H42       -11.2704   -1.2927    1.4601 H         1 <0>         0.1052
     94 H43        -9.3619   -1.2659    3.0437 H         1 <0>         0.0707
     95 H44        -8.1180    0.0021    2.9283 H         1 <0>         0.0782
     96 H45        -9.7616    0.4147    3.4728 H         1 <0>         0.0806
     97 H46       -14.1516   -2.0371   -0.1165 H         1 <0>         0.1295
     98 H47       -12.4708   -2.4654   -0.5159 H         1 <0>         0.1233
     99 H48       -12.8633   -1.8044    1.0894 H         1 <0>         0.1259
    100 H49       -13.6094    1.5388   -0.1584 H         1 <0>         0.1254
    101 H50       -14.7768    0.2331    0.1586 H         1 <0>         0.1289
    102 H51       -13.4532    0.5419    1.3079 H         1 <0>         0.1226
    103 H52       -10.3630   -1.1943   -3.1660 H         1 <0>         0.4140
    104 H53        -4.0508   -2.9790   -1.1408 H         1 <0>         0.0805
    105 H54        -4.4804   -1.9318   -2.5145 H         1 <0>         0.0807
    106 H55        -4.2623   -1.2290   -0.8938 H         1 <0>         0.0602
    107 H56        -6.1431   -4.2977   -1.5942 H         1 <0>         0.3741
    108 H57        -4.3360   -5.2046    1.0773 H         1 <0>         0.0724
    109 H58        -5.8722   -5.1830    0.1785 H         1 <0>         0.0759
    110 H59        -4.4319   -4.3883   -0.5015 H         1 <0>         0.0679
    111 H60        -2.0038   -2.8582    3.0636 H         1 <0>         0.0687
    112 H61        -2.3631   -4.4133    2.2758 H         1 <0>         0.0598
    113 H62        -0.9187   -3.4879    1.8009 H         1 <0>         0.0801
    114 H63        -2.2768   -0.8921    2.8508 H         1 <0>         0.3782
    115 H64        -0.2408   -2.1635   -1.8838 H         1 <0>         0.0734
    116 H65        -0.8705   -3.2425   -0.6159 H         1 <0>         0.0719
    117 H66        -1.9955   -2.4115   -1.7169 H         1 <0>         0.0781
    118 H67         0.8885   -0.8807   -0.1782 H         1 <0>         0.3749
    119 H68       -13.1035   -0.3692   -1.4605 H         1 <0>         0.4365
@<TRIPOS>BOND
     1    1    2 1
     2    1   67 1
     3    1   68 1
     4    1   69 1
     5    2    3 1
     6    2   70 1
     7    2   71 1
     8    3    4 1
     9    3   26 1
    10    3    5 1
    11    5    6 1
    12    5   65 1
    13    5   66 1
    14    6    7 1
    15    6    8 1
    16    6   64 1
    17    8    9 1
    18    8   10 1
    19    8   63 1
    20   10   11 2
    21   10   12 1
    22   12   13 1
    23   12   14 1
    24   12   62 1
    25   14   15 1
    26   14   72 1
    27   14   73 1
    28   15   16 1
    29   15   60 1
    30   15   61 1
    31   16   17 1
    32   16   18 1
    33   16   44 1
    34   18   19 1
    35   18   20 1
    36   18   43 1
    37   20   21 1
    38   20   22 1
    39   20   28 1
    40   22   23 1
    41   22   24 1
    42   22   27 1
    43   24   25 2
    44   24   26 1
    45   27   74 1
    46   27   75 1
    47   27   76 1
    48   28   29 1
    49   29   30 1
    50   29   37 1
    51   29   31 1
    52   31   32 1
    53   31   77 1
    54   31   78 1
    55   32   33 1
    56   32   40 1
    57   32   41 1
    58   33   34 1
    59   33   35 1
    60   33   39 1
    61   35   36 1
    62   35   37 1
    63   35   38 1
    64   38   79 1
    65   38   80 1
    66   38   81 1
    67   39   82 1
    68   40   83 1
    69   40   84 1
    70   40   85 1
    71   41   42 1
    72   42   86 1
    73   42   87 1
    74   42   88 1
    75   43   89 1
    76   43   90 1
    77   43   91 1
    78   44   45 1
    79   45   46 1
    80   45   54 1
    81   45   47 1
    82   47   48 1
    83   47   49 1
    84   47   59 1
    85   49   50 1
    86   49   51 1
    87   49   56 1
    88   51   52 1
    89   51   92 1
    90   51   93 1
    91   52   53 1
    92   52   54 1
    93   52   55 1
    94   55   94 1
    95   55   95 1
    96   55   96 1
    97   56   57 1
    98   56   58 1
    99   56  119 1
   100   57   97 1
   101   57   98 1
   102   57   99 1
   103   58  100 1
   104   58  101 1
   105   58  102 1
   106   59  103 1
   107   60  104 1
   108   60  105 1
   109   60  106 1
   110   61  107 1
   111   62  108 1
   112   62  109 1
   113   62  110 1
   114   63  111 1
   115   63  112 1
   116   63  113 1
   117   64  114 1
   118   65  115 1
   119   65  116 1
   120   65  117 1
   121   66  118 1
