@<TRIPOS>MOLECULE
ZINC00000315
   30    32     0     0     0
SMALL
USER_CHARGES

@<TRIPOS>ATOM
      1 C1         -0.0187    1.5258    0.0104 C.3       1 <0>        -0.1701
      2 C2          0.0021   -0.0041    0.0020 C.3       1 <0>         0.1253
      3 H1         -1.0161   -0.3808    0.0993 H         1 <0>         0.0875
      4 C3          0.6027   -0.4970   -1.3148 C.3       1 <0>        -0.1309
      5 C4          0.6209   -2.0287   -1.2963 C.3       1 <0>        -0.0742
      6 C5          1.4045   -2.4884   -0.0920 C.ar      1 <0>        -0.1211
      7 C6          2.0569   -3.7019   -0.1421 C.ar      1 <0>        -0.0983
      8 C7          2.7910   -4.1612    0.9430 C.ar      1 <0>         0.0462
      9 C8          2.8743   -3.3973    2.0878 C.ar      1 <0>        -0.0662
     10 C9          2.2183   -2.1677    2.1487 C.ar      1 <0>        -0.1701
     11 C10         1.4678   -1.7003    1.0540 C.ar      1 <0>         0.2031
     12 N1          0.8118   -0.4879    1.1292 N.pl3     1 <0>        -0.4945
     13 C11         0.8794    0.2939    2.2209 C.2       1 <0>         0.1486
     14 C12         1.5897   -0.0542    3.3500 C.2       1 <0>        -0.2988
     15 C13         2.3036   -1.3391    3.3665 C.2       1 <0>         0.4157
     16 O1          2.9394   -1.7021    4.3403 O.2       1 <0>        -0.4478
     17 C14         1.6291    0.8375    4.5138 C.2       1 <0>         0.5386
     18 O2          1.0275    1.9032    4.4889 O.co2     1 <0>        -0.7040
     19 O3          2.2637    0.5160    5.5099 O.co2     1 <0>        -0.6647
     20 F1          3.4218   -5.3541    0.8776 F         1 <0>        -0.1423
     21 H2          1.0034    1.9028    0.0461 H         1 <0>         0.0711
     22 H3         -0.5080    1.8875   -0.8939 H         1 <0>         0.0782
     23 H4         -0.5662    1.8769    0.8851 H         1 <0>         0.0763
     24 H5         -0.0064   -0.1479   -2.1486 H         1 <0>         0.0911
     25 H6          1.6202   -0.1197   -1.4173 H         1 <0>         0.0776
     26 H7         -0.3999   -2.4057   -1.2340 H         1 <0>         0.0816
     27 H8          1.0954   -2.3997   -2.2047 H         1 <0>         0.0847
     28 H9          1.9959   -4.3032   -1.0371 H         1 <0>         0.1377
     29 H10         3.4450   -3.7497    2.9342 H         1 <0>         0.1479
     30 H11         0.3539    1.2374    2.2129 H         1 <0>         0.1719
@<TRIPOS>BOND
     1    1    2 1
     2    1   21 1
     3    1   22 1
     4    1   23 1
     5    2    3 1
     6    2   12 1
     7    2    4 1
     8    4    5 1
     9    4   24 1
    10    4   25 1
    11    5    6 1
    12    5   26 1
    13    5   27 1
    14    6   11 ar
    15    6    7 ar
    16    7    8 ar
    17    7   28 1
    18    8    9 ar
    19    8   20 1
    20    9   10 ar
    21    9   29 1
    22   10   15 1
    23   10   11 ar
    24   11   12 1
    25   12   13 1
    26   13   14 2
    27   13   30 1
    28   14   15 1
    29   14   17 1
    30   15   16 2
    31   17   18 2
    32   17   19 1
