@<TRIPOS>MOLECULE
ZINC08101114
   81    83     0     0     0
SMALL
USER_CHARGES

@<TRIPOS>ATOM
      1 C1         -7.8374   -0.1530    0.7552 C.3       1 <0>        -0.1856
      2 C2         -6.7461   -1.0411    1.3562 C.3       1 <0>         0.0341
      3 H1         -7.1029   -1.4725    2.2915 H         1 <0>         0.1726
      4 C3         -6.4040   -2.1637    0.3745 C.3       1 <0>         0.0683
      5 H2         -7.2893   -2.7746    0.1980 H         1 <0>         0.1319
      6 C4         -5.2914   -3.0351    0.9631 C.3       1 <0>        -0.1906
      7 C5         -4.9130   -4.1197   -0.0502 C.3       1 <0>        -0.1513
      8 C6         -4.4949   -3.4521   -1.3639 C.3       1 <0>         0.0097
      9 H3         -4.2769   -4.2178   -2.1084 H         1 <0>         0.1719
     10 C7         -5.6383   -2.5645   -1.8626 C.3       1 <0>         0.2240
     11 H4         -6.5135   -3.1807   -2.0686 H         1 <0>         0.0846
     12 O1         -5.9613   -1.5980   -0.8608 O.3       1 <0>        -0.3946
     13 O2         -5.2348   -1.8948   -3.0587 O.3       1 <0>        -0.3343
     14 C8         -6.2555   -1.0833   -3.6431 C.3       1 <0>         0.0800
     15 H5         -6.9309   -0.7314   -2.8633 H         1 <0>         0.1340
     16 C9         -7.0414   -1.9088   -4.6639 C.3       1 <0>         0.0113
     17 H6         -7.8200   -1.2898   -5.1097 H         1 <0>         0.1826
     18 C10        -6.0934   -2.4028   -5.7586 C.3       1 <0>        -0.1714
     19 C11        -5.4526   -1.2025   -6.4582 C.3       1 <0>         0.0329
     20 H7         -6.2312   -0.5835   -6.9039 H         1 <0>         0.1794
     21 C12        -4.6668   -0.3770   -5.4374 C.3       1 <0>         0.0296
     22 H8         -4.2103    0.4781   -5.9358 H         1 <0>         0.1237
     23 C13        -5.6147    0.1170   -4.3427 C.3       1 <0>         0.1180
     24 H9         -6.3933    0.7360   -4.7885 H         1 <0>         0.1171
     25 O3         -4.8808    0.8880   -3.3894 O.3       1 <0>        -0.5258
     26 O4         -3.6460   -1.1885   -4.8530 O.3       1 <0>        -0.3492
     27 C14        -2.3454   -0.5972   -4.8824 C.3       1 <0>         0.2161
     28 H10        -2.1716   -0.1496   -5.8609 H         1 <0>         0.0892
     29 C15        -1.2892   -1.6734   -4.6183 C.3       1 <0>         0.0780
     30 H11        -1.3250   -2.4211   -5.4107 H         1 <0>         0.1172
     31 C16         0.0968   -1.0219   -4.5916 C.3       1 <0>         0.0417
     32 H12         0.3149   -0.5885   -5.5678 H         1 <0>         0.1701
     33 C17         0.1107    0.0797   -3.5274 C.3       1 <0>         0.0839
     34 C18        -0.9997    1.0883   -3.8335 C.3       1 <0>         0.0420
     35 O5         -2.2579    0.4120   -3.8744 O.3       1 <0>        -0.3639
     36 C19        -0.1265   -0.5388   -2.1482 C.3       1 <0>        -0.1884
     37 O6          1.3762    0.7432   -3.5432 O.3       1 <0>        -0.5470
     38 N1          1.1098   -2.0347   -4.2662 N.4       1 <0>        -0.5018
     39 C20         1.1703   -3.0308   -5.3443 C.3       1 <0>        -0.0570
     40 O7         -1.5486   -2.2986   -3.3598 O.3       1 <0>        -0.5553
     41 N2         -4.5425   -1.6768   -7.5092 N.4       1 <0>        -0.6358
     42 N3         -7.6566   -3.0613   -3.9922 N.4       1 <0>        -0.6405
     43 N4         -3.2975   -2.6316   -1.1383 N.4       1 <0>        -0.6354
     44 N5         -5.5460   -0.2345    1.6153 N.4       1 <0>        -0.5098
     45 C21        -5.8419    0.7651    2.6503 C.3       1 <0>        -0.0597
     46 H13        -8.1598    0.5783    1.4963 H         1 <0>         0.1028
     47 H14        -7.4436    0.3651   -0.1192 H         1 <0>         0.0857
     48 H15        -8.6863   -0.7698    0.4602 H         1 <0>         0.1091
     49 H16        -4.4196   -2.4170    1.1778 H         1 <0>         0.0701
     50 H17        -5.6430   -3.5026    1.8829 H         1 <0>         0.1444
     51 H18        -4.0830   -4.7092    0.3395 H         1 <0>         0.1321
     52 H19        -5.7709   -4.7683   -0.2276 H         1 <0>         0.1357
     53 H20        -5.3148   -3.0218   -5.3128 H         1 <0>         0.1239
     54 H21        -6.6533   -2.9909   -6.4858 H         1 <0>         0.1341
     55 H22        -4.4467    1.6668   -3.7638 H         1 <0>         0.4090
     56 H23        -1.0222    1.8514   -3.0556 H         1 <0>         0.1388
     57 H24        -0.8081    1.5580   -4.7983 H         1 <0>         0.0896
     58 H25         0.5212   -1.4065   -2.0229 H         1 <0>         0.0635
     59 H26         0.0986    0.1971   -1.3763 H         1 <0>         0.0926
     60 H27        -1.1683   -0.8478   -2.0629 H         1 <0>         0.0854
     61 H28         1.4555    1.4545   -2.8929 H         1 <0>         0.4226
     62 H29         2.0104   -1.5904   -4.1680 H         1 <0>         0.4545
     63 H30         1.9219   -3.7824   -5.1028 H         1 <0>         0.1455
     64 H31         0.1974   -3.5109   -5.4504 H         1 <0>         0.1150
     65 H32         1.4363   -2.5383   -6.2795 H         1 <0>         0.1346
     66 H33        -2.3594   -2.8254   -3.3420 H         1 <0>         0.3794
     67 H34        -5.0607   -2.2212   -8.1824 H         1 <0>         0.4564
     68 H35        -4.1199   -0.8852   -7.9706 H         1 <0>         0.4521
     69 H36        -8.1995   -2.7410   -3.2043 H         1 <0>         0.4474
     70 H37        -8.2587   -3.5464   -4.6405 H         1 <0>         0.4610
     71 H38        -2.5268   -3.2269   -0.8741 H         1 <0>         0.4495
     72 H39        -3.0646   -2.1363   -1.9859 H         1 <0>         0.4382
     73 H40        -4.7991   -0.8348    1.9313 H         1 <0>         0.4201
     74 H41        -6.6488    1.4136    2.3089 H         1 <0>         0.1352
     75 H42        -6.1451    0.2599    3.5673 H         1 <0>         0.1372
     76 H43        -4.9514    1.3636    2.8425 H         1 <0>         0.1386
     77 H44        -5.2653    0.2331    0.7665 H         1 <0>         0.4267
     78 H45        -3.8217   -2.2498   -7.0966 H         1 <0>         0.4336
     79 H46        -3.4785   -1.9682   -0.3999 H         1 <0>         0.4302
     80 H47         0.8636   -2.4907   -3.4005 H         1 <0>         0.4307
     81 H48        -6.9343   -3.6881   -3.6705 H         1 <0>         0.4283
@<TRIPOS>BOND
     1    1    2 1
     2    1   46 1
     3    1   47 1
     4    1   48 1
     5    2    3 1
     6    2    4 1
     7    2   44 1
     8    4    5 1
     9    4   12 1
    10    4    6 1
    11    6    7 1
    12    6   49 1
    13    6   50 1
    14    7    8 1
    15    7   51 1
    16    7   52 1
    17    8    9 1
    18    8   10 1
    19    8   43 1
    20   10   11 1
    21   10   12 1
    22   10   13 1
    23   13   14 1
    24   14   15 1
    25   14   23 1
    26   14   16 1
    27   16   17 1
    28   16   18 1
    29   16   42 1
    30   18   19 1
    31   18   53 1
    32   18   54 1
    33   19   20 1
    34   19   21 1
    35   19   41 1
    36   21   22 1
    37   21   23 1
    38   21   26 1
    39   23   24 1
    40   23   25 1
    41   25   55 1
    42   26   27 1
    43   27   28 1
    44   27   35 1
    45   27   29 1
    46   29   30 1
    47   29   31 1
    48   29   40 1
    49   31   32 1
    50   31   33 1
    51   31   38 1
    52   33   34 1
    53   33   36 1
    54   33   37 1
    55   34   35 1
    56   34   56 1
    57   34   57 1
    58   36   58 1
    59   36   59 1
    60   36   60 1
    61   37   61 1
    62   38   39 1
    63   38   62 1
    64   38   80 1
    65   39   63 1
    66   39   64 1
    67   39   65 1
    68   40   66 1
    69   41   67 1
    70   41   68 1
    71   41   78 1
    72   42   69 1
    73   42   70 1
    74   42   81 1
    75   43   71 1
    76   43   72 1
    77   43   79 1
    78   44   45 1
    79   44   73 1
    80   44   77 1
    81   45   74 1
    82   45   75 1
    83   45   76 1
