@<TRIPOS>MOLECULE
ZINC03873156
   44    46     0     0     0
SMALL
USER_CHARGES

@<TRIPOS>ATOM
      1 C1          0.0259    1.5254    0.0359 C.3       1 <0>        -0.1685
      2 C2          0.0021   -0.0041    0.0020 C.3       1 <0>         0.0655
      3 N1          0.6878   -0.4765   -1.2033 N.pl3     1 <0>        -0.4875
      4 C3         -0.0463   -0.7855   -2.2784 C.2       1 <0>         0.1490
      5 C4          0.5240   -1.2373   -3.4533 C.2       1 <0>        -0.2800
      6 C5          1.9882   -1.3835   -3.5242 C.2       1 <0>         0.4122
      7 O1          2.5386   -1.7776   -4.5376 O.2       1 <0>        -0.4283
      8 C6          2.7590   -1.0330   -2.3194 C.ar      1 <0>        -0.1411
      9 C7          2.0642   -0.5787   -1.1835 C.ar      1 <0>         0.1799
     10 C8          2.7803   -0.2398   -0.0402 C.ar      1 <0>         0.0546
     11 C9          4.1631   -0.3483   -0.0358 C.ar      1 <0>         0.1337
     12 C10         4.8428   -0.7954   -1.1708 C.ar      1 <0>         0.0690
     13 C11         4.1514   -1.1414   -2.2978 C.ar      1 <0>        -0.0569
     14 F1          6.1900   -0.8958   -1.1513 F         1 <0>        -0.1284
     15 N2          4.8803   -0.0079    1.1108 N.pl3     1 <0>        -0.6666
     16 C12         5.3585    1.3669    1.3235 C.3       1 <0>         0.1169
     17 C13         4.9333    1.8177    2.7249 C.3       1 <0>        -0.0227
     18 N3          5.4149    0.8483    3.7170 N.4       1 <0>        -0.5006
     19 C14         4.7628   -0.4502    3.5049 C.3       1 <0>         0.0100
     20 H1          3.6806   -0.3217    3.5295 H         1 <0>         0.1416
     21 C15         5.1746   -1.0120    2.1448 C.3       1 <0>         0.1230
     22 C16         5.1867   -1.4204    4.6093 C.3       1 <0>        -0.1800
     23 F2          2.1312    0.1940    1.0624 F         1 <0>        -0.1239
     24 C17        -0.3145   -1.5663   -4.6103 C.2       1 <0>         0.5340
     25 O2         -1.5303   -1.4415   -4.5404 O.co2     1 <0>        -0.6955
     26 O3          0.2011   -1.9657   -5.6462 O.co2     1 <0>        -0.6578
     27 H2          1.0590    1.8726    0.0460 H         1 <0>         0.0563
     28 H3         -0.4802    1.9163   -0.8468 H         1 <0>         0.0672
     29 H4         -0.4843    1.8769    0.9327 H         1 <0>         0.0739
     30 H5          0.5081   -0.3950    0.8847 H         1 <0>         0.1101
     31 H6         -1.0311   -0.3512   -0.0081 H         1 <0>         0.0969
     32 H7         -1.1197   -0.6786   -2.2262 H         1 <0>         0.1755
     33 H8          4.6812   -1.4868   -3.1732 H         1 <0>         0.1620
     34 H9          6.4453    1.3931    1.2443 H         1 <0>         0.0847
     35 H10         4.9179    2.0276    0.5768 H         1 <0>         0.1179
     36 H11         5.3611    2.7976    2.9368 H         1 <0>         0.1411
     37 H12         3.8460    1.8775    2.7731 H         1 <0>         0.1340
     38 H13         6.4138    0.7409    3.6232 H         1 <0>         0.4249
     39 H14         4.6126   -1.9234    1.9409 H         1 <0>         0.1169
     40 H15         6.2425   -1.2302    2.1500 H         1 <0>         0.0842
     41 H16         4.8907   -1.0193    5.5786 H         1 <0>         0.0841
     42 H17         4.7026   -2.3842    4.4518 H         1 <0>         0.1080
     43 H18         6.2688   -1.5490    4.5843 H         1 <0>         0.0828
     44 H19         5.2007    1.1833    4.6443 H         1 <0>         0.4277
@<TRIPOS>BOND
     1    1    2 1
     2    1   27 1
     3    1   28 1
     4    1   29 1
     5    2    3 1
     6    2   30 1
     7    2   31 1
     8    3    9 1
     9    3    4 1
    10    4    5 2
    11    4   32 1
    12    5    6 1
    13    5   24 1
    14    6    7 2
    15    6    8 1
    16    8   13 ar
    17    8    9 ar
    18    9   10 ar
    19   10   11 ar
    20   10   23 1
    21   11   12 ar
    22   11   15 1
    23   12   13 ar
    24   12   14 1
    25   13   33 1
    26   15   21 1
    27   15   16 1
    28   16   17 1
    29   16   34 1
    30   16   35 1
    31   17   18 1
    32   17   36 1
    33   17   37 1
    34   18   19 1
    35   18   38 1
    36   18   44 1
    37   19   20 1
    38   19   21 1
    39   19   22 1
    40   21   39 1
    41   21   40 1
    42   22   41 1
    43   22   42 1
    44   22   43 1
    45   24   25 2
    46   24   26 1
