@<TRIPOS>MOLECULE
ZINC03831157
   54    57     0     0     0
SMALL
USER_CHARGES
7-[2-carboxy-2-(4-hydroxyphenyl)-acetyl]amino-7-methoxy-3-[(1-methyltetrazol-5-yl)sulfanylmethyl]-8-oxo-5-oxa-1-azabicyclo[4.2.0]oct-2-ene-2-carboxylic acid
@<TRIPOS>ATOM
      1 C1         -1.3800    9.4812    7.8347 C.3       1 <0>         0.0939
      2 N1         -0.2291    8.5755    7.7979 N.pl3     1 <0>        -0.3824
      3 C2          0.2035    7.8380    6.7480 C.2       1 <0>         0.2383
      4 N2          1.2668    7.1771    7.1517 N.2       1 <0>        -0.3321
      5 N3          1.5241    7.4466    8.3807 N.2       1 <0>        -0.0378
      6 N4          0.6614    8.2837    8.8460 N.2       1 <0>        -0.1127
      7 S1         -0.5175    7.7803    5.1414 S.3       1 <0>         0.0440
      8 C3          0.6059    6.6129    4.3344 C.3       1 <0>        -0.0394
      9 C4          0.1718    6.4033    2.9066 C.2       1 <0>        -0.2150
     10 C5          0.6369    7.2460    1.9638 C.2       1 <0>         0.1741
     11 N5          0.1823    6.9323    0.6642 N.am      1 <0>        -0.5571
     12 C6         -1.0106    6.0750    0.3765 C.3       1 <0>         0.2764
     13 H1         -1.9868    6.5528    0.4589 H         1 <0>         0.1280
     14 C7         -0.4447    5.9869   -1.0365 C.3       1 <0>         0.3070
     15 C8          0.5679    7.0394   -0.6149 C.2       1 <0>         0.5405
     16 O1          1.3934    7.7068   -1.2016 O.2       1 <0>        -0.4646
     17 N6          0.1550    4.6872   -1.3486 N.am      1 <0>        -0.7064
     18 C9          1.1721    4.2170   -0.5996 C.2       1 <0>         0.5523
     19 O2          1.5908    4.8699    0.3328 O.2       1 <0>        -0.5018
     20 C10         1.7890    2.8801   -0.9207 C.3       1 <0>        -0.1175
     21 H2          2.1944    2.9006   -1.9323 H         1 <0>         0.0990
     22 C11         2.8968    2.5898    0.0588 C.ar      1 <0>        -0.0265
     23 C12         2.6211    2.5202    1.4119 C.ar      1 <0>        -0.0560
     24 C13         3.6339    2.2486    2.3113 C.ar      1 <0>        -0.1431
     25 C14         4.9306    2.0574    1.8569 C.ar      1 <0>         0.0851
     26 C15         5.2057    2.1334    0.4993 C.ar      1 <0>        -0.1509
     27 C16         4.1883    2.3992   -0.3966 C.ar      1 <0>        -0.0986
     28 O3          5.9299    1.7965    2.7403 O.3       1 <0>        -0.5047
     29 C17         0.7374    1.8051   -0.8227 C.2       1 <0>         0.4800
     30 O4         -0.3978    2.0955   -0.5278 O.co2     1 <0>        -0.6091
     31 O5         -1.3513    6.4364   -2.0454 O.3       1 <0>        -0.3564
     32 C18        -0.8592    6.2848   -3.3784 C.3       1 <0>         0.0252
     33 O6         -0.8412    4.9247    1.2182 O.3       1 <0>        -0.3290
     34 C19        -0.7558    5.2679    2.6022 C.3       1 <0>         0.1210
     35 C20         1.5301    8.3808    2.2591 C.2       1 <0>         0.4969
     36 O7          2.0037    9.0337    1.3504 O.co2     1 <0>        -0.6009
     37 H3         -2.2678    8.9283    8.1417 H         1 <0>         0.0860
     38 H4         -1.1878   10.2842    8.5463 H         1 <0>         0.0973
     39 H5         -1.5406    9.9050    6.8434 H         1 <0>         0.0996
     40 H6          0.5829    5.6609    4.8647 H         1 <0>         0.0823
     41 H7          1.6194    7.0136    4.3509 H         1 <0>         0.1536
     42 H8         -0.1799    4.1651   -2.0944 H         1 <0>         0.4069
     43 H9          1.6123    2.6742    1.7656 H         1 <0>         0.1240
     44 H10         3.4172    2.1903    3.3677 H         1 <0>         0.1222
     45 H11         6.2144    1.9846    0.1430 H         1 <0>         0.1193
     46 H12         4.4020    2.4585   -1.4536 H         1 <0>         0.1193
     47 H13         6.3744    2.5870    3.0759 H         1 <0>         0.3817
     48 H14         0.0604    6.8585   -3.4937 H         1 <0>         0.0564
     49 H15        -0.6573    5.2316   -3.5736 H         1 <0>         0.0505
     50 H16        -1.6054    6.6487   -4.0848 H         1 <0>         0.0950
     51 H17        -1.7528    5.5329    2.9542 H         1 <0>         0.0529
     52 H18        -0.4177    4.3914    3.1550 H         1 <0>         0.1033
     53 O8          1.0605    0.5257   -1.0685 O.co2     1 <0>        -0.7537
     54 O9          1.8215    8.6941    3.5371 O.co2     1 <0>        -0.7167
@<TRIPOS>BOND
     1    1    2 1
     2    1   37 1
     3    1   38 1
     4    1   39 1
     5    2    6 1
     6    2    3 1
     7    3    4 2
     8    3    7 1
     9    4    5 1
    10    5    6 2
    11    7    8 1
    12    8    9 1
    13    8   40 1
    14    8   41 1
    15    9   34 1
    16    9   10 2
    17   10   11 1
    18   10   35 1
    19   11   15 am
    20   11   12 1
    21   12   13 1
    22   12   14 1
    23   12   33 1
    24   14   15 1
    25   14   17 1
    26   14   31 1
    27   15   16 2
    28   17   18 am
    29   17   42 1
    30   18   19 2
    31   18   20 1
    32   20   21 1
    33   20   22 1
    34   20   29 1
    35   22   27 ar
    36   22   23 ar
    37   23   24 ar
    38   23   43 1
    39   24   25 ar
    40   24   44 1
    41   25   26 ar
    42   25   28 1
    43   26   27 ar
    44   26   45 1
    45   27   46 1
    46   28   47 1
    47   29   30 2
    48   29   53 1
    49   31   32 1
    50   32   48 1
    51   32   49 1
    52   32   50 1
    53   33   34 1
    54   34   51 1
    55   34   52 1
    56   35   36 2
    57   35   54 1
