@<TRIPOS>MOLECULE
ZINC00537891
   46    49     0     0     0
SMALL
USER_CHARGES

@<TRIPOS>ATOM
      1 C1         -0.0187    1.5258    0.0104 C.3       1 <0>        -0.1633
      2 C2          0.0021   -0.0041    0.0020 C.3       1 <0>         0.0870
      3 H1          0.5122   -0.3561   -0.8946 H         1 <0>         0.1204
      4 C3         -1.4339   -0.5347    0.0146 C.3       1 <0>         0.0510
      5 O1         -2.0442   -0.1776    1.2608 O.3       1 <0>        -0.2940
      6 C4         -1.3856   -0.5840    2.3818 C.ar      1 <0>         0.0889
      7 C5         -0.0024   -0.7526    2.3510 C.ar      1 <0>         0.1459
      8 N1          0.7119   -0.4920    1.1943 N.pl3     1 <0>        -0.4927
      9 C6          2.0401   -0.6691    1.1222 C.2       1 <0>         0.1507
     10 C7          2.7930   -1.0996    2.1955 C.2       1 <0>        -0.2811
     11 C8          2.1171   -1.3781    3.4742 C.2       1 <0>         0.4124
     12 O2          2.7379   -1.7513    4.4543 O.2       1 <0>        -0.4320
     13 C9          0.6554   -1.1854    3.5159 C.ar      1 <0>        -0.1349
     14 C10        -0.0666   -1.4283    4.6875 C.ar      1 <0>        -0.0794
     15 C11        -1.4214   -1.2500    4.7040 C.ar      1 <0>         0.0712
     16 C12        -2.0892   -0.8289    3.5524 C.ar      1 <0>         0.1323
     17 N2         -3.4738   -0.6522    3.5792 N.pl3     1 <0>        -0.6586
     18 C13        -4.0637    0.6474    3.9355 C.3       1 <0>         0.1226
     19 C14        -5.1250    0.4191    5.0168 C.3       1 <0>        -0.0240
     20 N3         -6.0948   -0.5782    4.5466 N.4       1 <0>        -0.3810
     21 C15        -5.4304   -1.8750    4.3651 C.3       1 <0>        -0.0241
     22 C16        -4.3841   -1.7587    3.2460 C.3       1 <0>         0.1228
     23 C17        -7.1716   -0.7161    5.5363 C.3       1 <0>        -0.0457
     24 F1         -2.1172   -1.4826    5.8384 F         1 <0>        -0.1374
     25 C18         4.2425   -1.2774    2.0651 C.2       1 <0>         0.5345
     26 O3          4.7943   -1.0435    0.9977 O.co2     1 <0>        -0.6964
     27 O4          4.9010   -1.6598    3.0236 O.co2     1 <0>        -0.6585
     28 H2          1.0039    1.9031    0.0027 H         1 <0>         0.0743
     29 H3         -0.5459    1.8868   -0.8726 H         1 <0>         0.0787
     30 H4         -0.5289    1.8773    0.9072 H         1 <0>         0.0640
     31 H5         -1.9950   -0.0909   -0.8078 H         1 <0>         0.1305
     32 H6         -1.4238   -1.6196   -0.0899 H         1 <0>         0.0752
     33 H7          2.5399   -0.4669    0.1864 H         1 <0>         0.1725
     34 H8          0.4459   -1.7571    5.5795 H         1 <0>         0.1562
     35 H9         -3.2872    1.3095    4.3185 H         1 <0>         0.1148
     36 H10        -4.5276    1.0928    3.0553 H         1 <0>         0.0806
     37 H11        -4.6451    0.0586    5.9267 H         1 <0>         0.1322
     38 H12        -5.6400    1.3570    5.2245 H         1 <0>         0.1355
     39 H13        -4.9412   -2.1661    5.2946 H         1 <0>         0.1325
     40 H14        -6.1703   -2.6275    4.0925 H         1 <0>         0.1351
     41 H15        -4.8797   -1.5523    2.2974 H         1 <0>         0.0802
     42 H16        -3.8195   -2.6882    3.1729 H         1 <0>         0.1143
     43 H17        -7.6708    0.2441    5.6661 H         1 <0>         0.1220
     44 H18        -7.8922   -1.4562    5.1885 H         1 <0>         0.1220
     45 H19        -6.7507   -1.0384    6.4887 H         1 <0>         0.1205
     46 H20        -6.4863   -0.2762    3.6671 H         1 <0>         0.4224
@<TRIPOS>BOND
     1    1    2 1
     2    1   28 1
     3    1   29 1
     4    1   30 1
     5    2    3 1
     6    2    8 1
     7    2    4 1
     8    4    5 1
     9    4   31 1
    10    4   32 1
    11    5    6 1
    12    6   16 ar
    13    6    7 ar
    14    7   13 ar
    15    7    8 1
    16    8    9 1
    17    9   10 2
    18    9   33 1
    19   10   11 1
    20   10   25 1
    21   11   12 2
    22   11   13 1
    23   13   14 ar
    24   14   15 ar
    25   14   34 1
    26   15   16 ar
    27   15   24 1
    28   16   17 1
    29   17   22 1
    30   17   18 1
    31   18   19 1
    32   18   35 1
    33   18   36 1
    34   19   20 1
    35   19   37 1
    36   19   38 1
    37   20   21 1
    38   20   23 1
    39   20   46 1
    40   21   22 1
    41   21   39 1
    42   21   40 1
    43   22   41 1
    44   22   42 1
    45   23   43 1
    46   23   44 1
    47   23   45 1
    48   25   26 2
    49   25   27 1
