@<TRIPOS>MOLECULE
ZINC00538362
   50    53     0     0     0
SMALL
USER_CHARGES

@<TRIPOS>ATOM
      1 C1          0.2561    0.9296    0.5182 C.3       1 <0>        -0.1794
      2 C2          0.2580   -0.5961    0.4028 C.3       1 <0>         0.0105
      3 H1          0.7440   -0.8896   -0.5277 H         1 <0>         0.1423
      4 C3         -1.1852   -1.1108    0.4099 C.3       1 <0>         0.1251
      5 N1         -1.1557   -2.5814    0.4300 N.pl3     1 <0>        -0.6665
      6 C4         -0.3151   -3.2442    1.4391 C.3       1 <0>         0.1253
      7 C5          1.0870   -2.6288    1.3834 C.3       1 <0>         0.0105
      8 H2          1.5479   -2.8610    0.4234 H         1 <0>         0.1425
      9 N2          0.9879   -1.1721    1.5393 N.4       1 <0>        -0.4994
     10 C6          1.9426   -3.2058    2.5130 C.3       1 <0>        -0.1793
     11 C7         -1.9039   -3.3263   -0.4815 C.ar      1 <0>         0.1902
     12 C8         -3.2081   -3.6979   -0.1627 C.ar      1 <0>        -0.0264
     13 C9         -3.9590   -4.4374   -1.0608 C.ar      1 <0>         0.2890
     14 C10        -3.3967   -4.8086   -2.2921 C.ar      1 <0>        -0.2311
     15 C11        -2.0783   -4.4319   -2.6123 C.ar      1 <0>         0.2329
     16 C12        -1.3434   -3.6854   -1.7002 C.ar      1 <0>        -0.0134
     17 F1         -0.0793   -3.3123   -1.9972 F         1 <0>        -0.1310
     18 N3         -1.5249   -4.7977   -3.8238 N.pl3     1 <0>        -0.4581
     19 C13        -2.1917   -5.5117   -4.7384 C.2       1 <0>         0.1395
     20 C14        -3.4903   -5.9368   -4.5354 C.2       1 <0>        -0.2758
     21 C15        -4.1629   -5.5933   -3.2695 C.2       1 <0>         0.4256
     22 O1         -5.3077   -5.9459   -3.0430 O.2       1 <0>        -0.4501
     23 C16        -4.1877   -6.7175   -5.5616 C.2       1 <0>         0.5344
     24 O2         -3.6193   -6.9978   -6.6089 O.co2     1 <0>        -0.6956
     25 O3         -5.3385   -7.0891   -5.3712 O.co2     1 <0>        -0.6578
     26 C17        -0.1505   -4.3862   -4.1202 C.3       1 <0>         0.0212
     27 C18         0.4255   -4.7765   -5.4829 C.3       1 <0>        -0.1802
     28 C19         0.9106   -5.4843   -4.2162 C.3       1 <0>        -0.1788
     29 N4         -5.2635   -4.8107   -0.7444 N.pl3     1 <0>        -0.8354
     30 F2         -3.7411   -3.3366    1.0250 F         1 <0>        -0.1329
     31 H3          1.2828    1.2956    0.5134 H         1 <0>         0.0834
     32 H4         -0.2859    1.3570   -0.3254 H         1 <0>         0.1081
     33 H5         -0.2299    1.2230    1.4486 H         1 <0>         0.0821
     34 H6         -1.7010   -0.7426    1.2968 H         1 <0>         0.0829
     35 H7         -1.7011   -0.7670   -0.4866 H         1 <0>         0.1175
     36 H8         -0.7431   -3.0915    2.4299 H         1 <0>         0.0828
     37 H9         -0.2558   -4.3109    1.2230 H         1 <0>         0.1176
     38 H10         1.9147   -0.7753    1.5781 H         1 <0>         0.4245
     39 H11         2.0157   -4.2872    2.3974 H         1 <0>         0.1081
     40 H12         2.9400   -2.7680    2.4732 H         1 <0>         0.0834
     41 H13         1.4818   -2.9733    3.4730 H         1 <0>         0.0820
     42 H14        -1.6985   -5.7636   -5.6657 H         1 <0>         0.1769
     43 H15         0.1541   -3.4274   -3.7007 H         1 <0>         0.1648
     44 H16        -0.2182   -5.3394   -6.1588 H         1 <0>         0.1152
     45 H17         1.1091   -4.0743   -5.9602 H         1 <0>         0.1129
     46 H18         1.9133   -5.2478   -3.8601 H         1 <0>         0.1059
     47 H19         0.5860   -6.5129   -4.0588 H         1 <0>         0.1032
     48 H20        -5.7358   -4.3615   -0.0260 H         1 <0>         0.4021
     49 H21        -5.6994   -5.5199   -1.2424 H         1 <0>         0.4265
     50 H22         0.4974   -0.9594    2.3950 H         1 <0>         0.4220
@<TRIPOS>BOND
     1    1    2 1
     2    1   31 1
     3    1   32 1
     4    1   33 1
     5    2    3 1
     6    2    9 1
     7    2    4 1
     8    4    5 1
     9    4   34 1
    10    4   35 1
    11    5    6 1
    12    5   11 1
    13    6    7 1
    14    6   36 1
    15    6   37 1
    16    7    8 1
    17    7    9 1
    18    7   10 1
    19    9   38 1
    20    9   50 1
    21   10   39 1
    22   10   40 1
    23   10   41 1
    24   11   16 ar
    25   11   12 ar
    26   12   13 ar
    27   12   30 1
    28   13   14 ar
    29   13   29 1
    30   14   21 1
    31   14   15 ar
    32   15   16 ar
    33   15   18 1
    34   16   17 1
    35   18   19 1
    36   18   26 1
    37   19   20 2
    38   19   42 1
    39   20   21 1
    40   20   23 1
    41   21   22 2
    42   23   24 2
    43   23   25 1
    44   26   28 1
    45   26   27 1
    46   26   43 1
    47   27   28 1
    48   27   44 1
    49   27   45 1
    50   28   46 1
    51   28   47 1
    52   29   48 1
    53   29   49 1
