@<TRIPOS>MOLECULE
ZINC34781666
   42    44     0     0     0
SMALL
USER_CHARGES

@<TRIPOS>ATOM
      1 C1         -0.0187    1.5258    0.0104 C.3       1 <0>        -0.1214
      2 C2          0.0021   -0.0041    0.0020 C.3       1 <0>         0.0310
      3 C3          0.9183   -0.5578   -1.1267 C.3       1 <0>         0.0309
      4 H1          1.7655    0.1146   -1.2616 H         1 <0>         0.0690
      5 N1          1.4152   -1.8973   -0.7968 N.am      1 <0>        -0.5068
      6 C4          1.5639   -2.1961    0.6340 C.3       1 <0>         0.1063
      7 H2          1.1313   -3.1348    0.9800 H         1 <0>         0.1538
      8 S1          0.9226   -0.6800    1.4567 S.3       1 <0>        -0.3029
      9 C5          3.0673   -2.2015    0.4210 C.3       1 <0>         0.0843
     10 H3          3.5574   -3.1223    0.7376 H         1 <0>         0.1372
     11 C6          2.7129   -2.1678   -1.0358 C.2       1 <0>         0.4947
     12 O1          3.3561   -2.3252   -2.0520 O.2       1 <0>        -0.4347
     13 N2          3.7428   -0.9941    0.9027 N.am      1 <0>        -0.6918
     14 C7          5.0446   -1.0426    1.2482 C.2       1 <0>         0.5312
     15 O2          5.6569   -2.0859    1.1604 O.2       1 <0>        -0.5204
     16 C8          5.7395    0.1994    1.7437 C.3       1 <0>         0.1209
     17 H4          5.4088    1.0583    1.1597 H         1 <0>         0.1127
     18 C9          5.4011    0.4190    3.1957 C.ar      1 <0>        -0.1235
     19 C10         6.0648   -0.2951    4.1758 C.ar      1 <0>        -0.1091
     20 C11         5.7544   -0.0938    5.5077 C.ar      1 <0>        -0.1176
     21 C12         4.7805    0.8220    5.8596 C.ar      1 <0>        -0.1156
     22 C13         4.1175    1.5368    4.8796 C.ar      1 <0>        -0.1142
     23 C14         4.4309    1.3385    3.5479 C.ar      1 <0>        -0.0994
     24 N3          7.1924    0.0387    1.5985 N.3       1 <0>        -0.8195
     25 C15         0.1332   -0.6267   -2.4112 C.2       1 <0>         0.5138
     26 O3          0.1177    0.3290   -3.1682 O.co2     1 <0>        -0.6853
     27 O4         -0.4864   -1.6381   -2.6935 O.co2     1 <0>        -0.6576
     28 C16        -1.4126   -0.5802   -0.0861 C.3       1 <0>        -0.1235
     29 H5          1.0039    1.9031    0.0027 H         1 <0>         0.0636
     30 H6         -0.5459    1.8868   -0.8726 H         1 <0>         0.0878
     31 H7         -0.5289    1.8773    0.9072 H         1 <0>         0.0658
     32 H8          3.2531   -0.1597    0.9729 H         1 <0>         0.4129
     33 H9          6.8256   -1.0107    3.9008 H         1 <0>         0.1217
     34 H10         6.2724   -0.6522    6.2733 H         1 <0>         0.1228
     35 H11         4.5375    0.9789    6.9001 H         1 <0>         0.1222
     36 H12         3.3564    2.2521    5.1546 H         1 <0>         0.1250
     37 H13         3.9155    1.8997    2.7825 H         1 <0>         0.1265
     38 H14         7.6779    0.8825    1.8637 H         1 <0>         0.3511
     39 H15         7.5238   -0.7517    2.1310 H         1 <0>         0.3520
     40 H16        -1.8843   -0.2455   -1.0100 H         1 <0>         0.0788
     41 H17        -1.3627   -1.6690   -0.0774 H         1 <0>         0.0696
     42 H18        -1.9986   -0.2365    0.7662 H         1 <0>         0.0576
@<TRIPOS>BOND
     1    1    2 1
     2    1   29 1
     3    1   30 1
     4    1   31 1
     5    2    8 1
     6    2    3 1
     7    2   28 1
     8    3    4 1
     9    3    5 1
    10    3   25 1
    11    5   11 am
    12    5    6 1
    13    6    7 1
    14    6    8 1
    15    6    9 1
    16    9   10 1
    17    9   11 1
    18    9   13 1
    19   11   12 2
    20   13   14 am
    21   13   32 1
    22   14   15 2
    23   14   16 1
    24   16   17 1
    25   16   18 1
    26   16   24 1
    27   18   23 ar
    28   18   19 ar
    29   19   20 ar
    30   19   33 1
    31   20   21 ar
    32   20   34 1
    33   21   22 ar
    34   21   35 1
    35   22   23 ar
    36   22   36 1
    37   23   37 1
    38   24   38 1
    39   24   39 1
    40   25   26 2
    41   25   27 1
    42   28   40 1
    43   28   41 1
    44   28   42 1
