@<TRIPOS>MOLECULE
ZINC00020220
   42    45     0     0     0
SMALL
USER_CHARGES

@<TRIPOS>ATOM
      1 C1          0.0085    1.3942    0.4546 C.ar      1 <0>        -0.0524
      2 C2          1.1990    2.0892    0.2267 C.ar      1 <0>        -0.1603
      3 C3          2.4277    1.4047    0.2038 C.ar      1 <0>         0.2079
      4 C4          2.4426    0.0303    0.4107 C.ar      1 <0>        -0.1586
      5 C5          1.2543   -0.6455    0.6358 C.ar      1 <0>         0.1643
      6 C6          0.0386    0.0436    0.6558 C.ar      1 <0>         0.0441
      7 F1         -1.1120   -0.6291    0.8766 F         1 <0>        -0.1374
      8 N1          1.2713   -2.0225    0.8429 N.pl3     1 <0>        -0.6709
      9 C7          1.1586   -2.9587   -0.2863 C.3       1 <0>         0.1161
     10 C8          2.2921   -3.9844   -0.1818 C.3       1 <0>        -0.0230
     11 N2          2.2535   -4.6221    1.1403 N.4       1 <0>        -0.5025
     12 C9          2.5249   -3.6257    2.1842 C.3       1 <0>        -0.0226
     13 C10         1.4086   -2.5822    2.1964 C.3       1 <0>         0.1154
     14 N3          3.6029    2.0906   -0.0220 N.pl3     1 <0>        -0.4659
     15 C11         3.6428    3.4125   -0.2271 C.2       1 <0>         0.1387
     16 C12         2.5016    4.1915   -0.2270 C.2       1 <0>        -0.2784
     17 C13         1.1985    3.5450    0.0060 C.2       1 <0>         0.4097
     18 O1          0.1633    4.1882    0.0157 O.2       1 <0>        -0.4329
     19 C14         2.5862    5.6377   -0.4546 C.2       1 <0>         0.5339
     20 O2          3.6743    6.1644   -0.6468 O.co2     1 <0>        -0.6969
     21 O3          1.5686    6.3181   -0.4524 O.co2     1 <0>        -0.6577
     22 C15         4.8610    1.3402   -0.0375 C.3       1 <0>         0.0420
     23 C16         6.1624    2.1413    0.0391 C.3       1 <0>        -0.1780
     24 C17         5.7496    1.4764   -1.2756 C.3       1 <0>        -0.1817
     25 H1         -0.9324    1.9241    0.4759 H         1 <0>         0.1548
     26 H2          3.3780   -0.5095    0.3956 H         1 <0>         0.1378
     27 H3          0.1969   -3.4699   -0.2436 H         1 <0>         0.0817
     28 H4          1.2448   -2.4120   -1.2253 H         1 <0>         0.1185
     29 H5          2.1684   -4.7428   -0.9548 H         1 <0>         0.1396
     30 H6          3.2502   -3.4821   -0.3152 H         1 <0>         0.1324
     31 H7          1.3411   -5.0256    1.2913 H         1 <0>         0.4275
     32 H8          2.5727   -4.1198    3.1546 H         1 <0>         0.1399
     33 H9          3.4760   -3.1343    1.9792 H         1 <0>         0.1320
     34 H10         1.6600   -1.7868    2.8979 H         1 <0>         0.1184
     35 H11         0.4726   -3.0548    2.4940 H         1 <0>         0.0813
     36 H12         4.5984    3.8860   -0.3979 H         1 <0>         0.1734
     37 H13         4.8364    0.3708    0.4601 H         1 <0>         0.1363
     38 H14         6.0824    3.2266    0.1010 H         1 <0>         0.1164
     39 H15         6.9941    1.6989    0.5873 H         1 <0>         0.1122
     40 H16         6.3098    0.5966   -1.5923 H         1 <0>         0.1074
     41 H17         5.3980    2.1242   -2.0786 H         1 <0>         0.1079
     42 H18         2.9514   -5.3496    1.1820 H         1 <0>         0.4296
@<TRIPOS>BOND
     1    1    6 ar
     2    1    2 ar
     3    1   25 1
     4    2   17 1
     5    2    3 ar
     6    3    4 ar
     7    3   14 1
     8    4    5 ar
     9    4   26 1
    10    5    6 ar
    11    5    8 1
    12    6    7 1
    13    8   13 1
    14    8    9 1
    15    9   10 1
    16    9   27 1
    17    9   28 1
    18   10   11 1
    19   10   29 1
    20   10   30 1
    21   11   12 1
    22   11   31 1
    23   11   42 1
    24   12   13 1
    25   12   32 1
    26   12   33 1
    27   13   34 1
    28   13   35 1
    29   14   15 1
    30   14   22 1
    31   15   16 2
    32   15   36 1
    33   16   17 1
    34   16   19 1
    35   17   18 2
    36   19   20 2
    37   19   21 1
    38   22   24 1
    39   22   23 1
    40   22   37 1
    41   23   24 1
    42   23   38 1
    43   23   39 1
    44   24   40 1
    45   24   41 1
