@<TRIPOS>MOLECULE
ZINC00597112
   48    51     0     0     0
SMALL
USER_CHARGES

@<TRIPOS>ATOM
      1 C1          1.0999    2.4126    0.1917 C.3       1 <0>        -0.1886
      2 C2          0.8623    0.9039    0.1023 C.3       1 <0>        -0.0102
      3 N1          1.5004    0.3788   -1.1123 N.4       1 <0>        -0.3819
      4 C3          2.9555    0.5478   -1.0107 C.3       1 <0>        -0.0264
      5 C4          3.6127    0.1065   -2.3226 C.3       1 <0>         0.1189
      6 N2          3.1804   -1.2675   -2.6216 N.pl3     1 <0>        -0.6708
      7 C5          1.7402   -1.5649   -2.5839 C.3       1 <0>         0.1184
      8 C6          1.1713   -1.0446   -1.2597 C.3       1 <0>        -0.0214
      9 C7          4.1084   -2.2588   -2.9310 C.ar      1 <0>         0.1656
     10 C8          4.6503   -3.0335   -1.9178 C.ar      1 <0>        -0.1585
     11 C9          5.5760   -4.0233   -2.2246 C.ar      1 <0>         0.2078
     12 C10         5.9488   -4.2227   -3.5666 C.ar      1 <0>        -0.1605
     13 C11         5.3944   -3.4338   -4.5773 C.ar      1 <0>        -0.0526
     14 C12         4.4811   -2.4681   -4.2612 C.ar      1 <0>         0.0443
     15 F1          3.9399   -1.7086   -5.2387 F         1 <0>        -0.1372
     16 C13         6.9308   -5.2751   -3.8771 C.2       1 <0>         0.4100
     17 O1          7.2899   -5.4907   -5.0216 O.2       1 <0>        -0.4332
     18 C14         7.4613   -6.0561   -2.7461 C.2       1 <0>        -0.2789
     19 C15         7.0186   -5.7676   -1.4694 C.2       1 <0>         0.1391
     20 N3          6.1243   -4.8020   -1.2267 N.pl3     1 <0>        -0.4660
     21 C16         5.7097   -4.5620    0.1578 C.3       1 <0>         0.0424
     22 C17         6.5525   -5.1943    1.2673 C.3       1 <0>        -0.1781
     23 C18         5.1643   -5.7530    0.9484 C.3       1 <0>        -0.1818
     24 C19         8.4425   -7.1222   -2.9717 C.2       1 <0>         0.5339
     25 O2          8.8767   -7.7649   -2.0247 O.co2     1 <0>        -0.6971
     26 O3          8.8275   -7.3696   -4.1071 O.co2     1 <0>        -0.6579
     27 H1          2.1712    2.6101    0.2297 H         1 <0>         0.0805
     28 H2          0.6714    2.9005   -0.6838 H         1 <0>         0.0801
     29 H3          0.6265    2.8022    1.0929 H         1 <0>         0.1047
     30 H4          1.2908    0.4160    0.9778 H         1 <0>         0.1272
     31 H5         -0.2090    0.7064    0.0643 H         1 <0>         0.1292
     32 H6          3.1873    1.5961   -0.8227 H         1 <0>         0.1376
     33 H7          3.3358   -0.0614   -0.1907 H         1 <0>         0.1303
     34 H8          3.3035    0.7714   -3.1290 H         1 <0>         0.0806
     35 H9          4.6972    0.1343   -2.2165 H         1 <0>         0.1181
     36 H10         1.2419   -1.0687   -3.4167 H         1 <0>         0.0807
     37 H11         1.5867   -2.6419   -2.6505 H         1 <0>         0.1185
     38 H12         1.6056   -1.6056   -0.4321 H         1 <0>         0.1303
     39 H13         0.0885   -1.1697   -1.2551 H         1 <0>         0.1364
     40 H14         4.3542   -2.8680   -0.8924 H         1 <0>         0.1375
     41 H15         5.6833   -3.5900   -5.6062 H         1 <0>         0.1546
     42 H16         7.4071   -6.3402   -0.6402 H         1 <0>         0.1732
     43 H17         5.2706   -3.5839    0.3542 H         1 <0>         0.1362
     44 H18         7.4154   -5.7887    0.9671 H         1 <0>         0.1164
     45 H19         6.6681   -4.6320    2.1939 H         1 <0>         0.1120
     46 H20         4.3666   -5.5583    1.6653 H         1 <0>         0.1072
     47 H21         5.1140   -6.7150    0.4385 H         1 <0>         0.1079
     48 H22         1.1606    0.8862   -1.9155 H         1 <0>         0.4218
@<TRIPOS>BOND
     1    1    2 1
     2    1   27 1
     3    1   28 1
     4    1   29 1
     5    2    3 1
     6    2   30 1
     7    2   31 1
     8    3    8 1
     9    3    4 1
    10    3   48 1
    11    4    5 1
    12    4   32 1
    13    4   33 1
    14    5    6 1
    15    5   34 1
    16    5   35 1
    17    6    7 1
    18    6    9 1
    19    7    8 1
    20    7   36 1
    21    7   37 1
    22    8   38 1
    23    8   39 1
    24    9   14 ar
    25    9   10 ar
    26   10   11 ar
    27   10   40 1
    28   11   20 1
    29   11   12 ar
    30   12   13 ar
    31   12   16 1
    32   13   14 ar
    33   13   41 1
    34   14   15 1
    35   16   17 2
    36   16   18 1
    37   18   19 2
    38   18   24 1
    39   19   20 1
    40   19   42 1
    41   20   21 1
    42   21   23 1
    43   21   22 1
    44   21   43 1
    45   22   23 1
    46   22   44 1
    47   22   45 1
    48   23   46 1
    49   23   47 1
    50   24   25 2
    51   24   26 1
