@<TRIPOS>MOLECULE
ZINC00538273
   46    49     0     0     0
SMALL
USER_CHARGES

@<TRIPOS>ATOM
      1 C1         -0.0187    1.5258    0.0104 C.3       1 <0>        -0.1718
      2 C2          0.0021   -0.0041    0.0020 C.3       1 <0>         0.0909
      3 H1         -1.0203   -0.3819    0.0098 H         1 <0>         0.1015
      4 C3          0.7201   -0.4985   -1.2565 C.3       1 <0>         0.0502
      5 O1          0.8511   -1.9233   -1.1803 O.3       1 <0>        -0.2969
      6 C4          1.4737   -2.4030   -0.0677 C.ar      1 <0>         0.0877
      7 C5          1.4165   -1.6828    1.1242 C.ar      1 <0>         0.1456
      8 N1          0.7148   -0.4920    1.1925 N.pl3     1 <0>        -0.4937
      9 C6          0.6609    0.2389    2.3166 C.2       1 <0>         0.1446
     10 C7          1.2772   -0.1508    3.4882 C.2       1 <0>        -0.2813
     11 C8          2.0263   -1.4188    3.5118 C.2       1 <0>         0.4120
     12 O2          2.5801   -1.8122    4.5236 O.2       1 <0>        -0.4320
     13 C9          2.0773   -2.1901    2.2569 C.ar      1 <0>        -0.1349
     14 C10         2.7674   -3.4034    2.1893 C.ar      1 <0>        -0.0787
     15 C11         2.8070   -4.1020    1.0154 C.ar      1 <0>         0.0711
     16 C12         2.1627   -3.6063   -0.1197 C.ar      1 <0>         0.1332
     17 N2          2.2112   -4.3266   -1.3147 N.pl3     1 <0>        -0.6589
     18 C13         1.1831   -5.3284   -1.6364 C.3       1 <0>         0.1224
     19 C14         1.8831   -6.6290   -2.0442 C.3       1 <0>        -0.0239
     20 N3          2.8251   -6.3550   -3.1367 N.4       1 <0>        -0.3810
     21 C15         3.8921   -5.4632   -2.6651 C.3       1 <0>        -0.0240
     22 C16         3.2886   -4.1008   -2.2907 C.3       1 <0>         0.1227
     23 C17         3.4144   -7.6179   -3.6010 C.3       1 <0>        -0.0457
     24 F1          3.4724   -5.2761    0.9529 F         1 <0>        -0.1372
     25 C18         1.1882    0.6842    4.6901 C.2       1 <0>         0.5347
     26 O3          0.5634    1.7364    4.6595 O.co2     1 <0>        -0.6965
     27 O4          1.7387    0.3291    5.7242 O.co2     1 <0>        -0.6583
     28 H2          1.0039    1.9031    0.0027 H         1 <0>         0.0739
     29 H3         -0.5459    1.8868   -0.8726 H         1 <0>         0.0849
     30 H4         -0.5289    1.8773    0.9072 H         1 <0>         0.0868
     31 H5          0.1379   -0.2315   -2.1384 H         1 <0>         0.1304
     32 H6          1.7086   -0.0431   -1.3163 H         1 <0>         0.0760
     33 H7          0.1134    1.1698    2.3038 H         1 <0>         0.1770
     34 H8          3.2697   -3.7887    3.0644 H         1 <0>         0.1566
     35 H9          0.5593   -5.5072   -0.7607 H         1 <0>         0.1151
     36 H10         0.5675   -4.9696   -2.4612 H         1 <0>         0.0807
     37 H11         2.4254   -7.0333   -1.1895 H         1 <0>         0.1323
     38 H12         1.1395   -7.3526   -2.3783 H         1 <0>         0.1356
     39 H13         4.3736   -5.9028   -1.7916 H         1 <0>         0.1326
     40 H14         4.6289   -5.3278   -3.4569 H         1 <0>         0.1351
     41 H15         2.8819   -3.6202   -3.1804 H         1 <0>         0.0803
     42 H16         4.0573   -3.4677   -1.8477 H         1 <0>         0.1143
     43 H17         2.6241   -8.2778   -3.9588 H         1 <0>         0.1221
     44 H18         4.1140   -7.4159   -4.4121 H         1 <0>         0.1220
     45 H19         3.9425   -8.0972   -2.7766 H         1 <0>         0.1205
     46 H20         2.3338   -5.9151   -3.9004 H         1 <0>         0.4224
@<TRIPOS>BOND
     1    1    2 1
     2    1   28 1
     3    1   29 1
     4    1   30 1
     5    2    3 1
     6    2    8 1
     7    2    4 1
     8    4    5 1
     9    4   31 1
    10    4   32 1
    11    5    6 1
    12    6   16 ar
    13    6    7 ar
    14    7   13 ar
    15    7    8 1
    16    8    9 1
    17    9   10 2
    18    9   33 1
    19   10   11 1
    20   10   25 1
    21   11   12 2
    22   11   13 1
    23   13   14 ar
    24   14   15 ar
    25   14   34 1
    26   15   16 ar
    27   15   24 1
    28   16   17 1
    29   17   22 1
    30   17   18 1
    31   18   19 1
    32   18   35 1
    33   18   36 1
    34   19   20 1
    35   19   37 1
    36   19   38 1
    37   20   21 1
    38   20   23 1
    39   20   46 1
    40   21   22 1
    41   21   39 1
    42   21   40 1
    43   22   41 1
    44   22   42 1
    45   23   43 1
    46   23   44 1
    47   23   45 1
    48   25   26 2
    49   25   27 1
