@<TRIPOS>MOLECULE
ZINC03808779
   51    53     0     0     0
SMALL
USER_CHARGES

@<TRIPOS>ATOM
      1 C1         -0.2287    1.1573   -0.0967 C.3       1 <0>        -0.1454
      2 C2          0.0112   -0.3503    0.0061 C.3       1 <0>        -0.0494
      3 H1          0.4343   -0.7317   -0.9232 H         1 <0>         0.0882
      4 C3         -1.3004   -1.0810    0.3383 C.3       1 <0>         0.0573
      5 H2         -1.6273   -1.7763   -0.4349 H         1 <0>         0.1331
      6 C4         -2.4014   -0.1822    0.8958 C.3       1 <0>        -0.1481
      7 H3         -2.1463    0.8772    0.9236 H         1 <0>         0.1450
      8 C5         -2.0935   -0.9290    2.1662 C.2       1 <0>         0.5002
      9 O1         -2.5918   -0.8842    3.2714 O.2       1 <0>        -0.4223
     10 N1         -1.0722   -1.6809    1.6581 N.am      1 <0>        -0.4651
     11 C6          0.2486   -1.4213    2.0605 C.2       1 <0>         0.1668
     12 C7          0.9259   -0.6610    1.1689 C.2       1 <0>        -0.2334
     13 S1          2.5950   -0.1209    1.3343 S.3       1 <0>         0.0521
     14 C8          3.4566   -0.9309   -0.0413 C.3       1 <0>        -0.1422
     15 H4          2.9798   -0.6861   -0.9905 H         1 <0>         0.1185
     16 C9          4.9554   -0.5311   -0.0612 C.3       1 <0>        -0.1032
     17 C10         5.5950   -1.7503   -0.7712 C.3       1 <0>         0.0078
     18 H5          5.4873   -1.6596   -1.8521 H         1 <0>         0.1650
     19 N2          4.8357   -2.9176   -0.2745 N.4       1 <0>        -0.4992
     20 C11         3.5028   -2.4591    0.1679 C.3       1 <0>        -0.0038
     21 C12         7.0502   -1.8707   -0.3982 C.2       1 <0>         0.5060
     22 O2          7.3953   -2.6680    0.4481 O.2       1 <0>        -0.5185
     23 N3          7.9680   -1.0925   -1.0051 N.am      1 <0>        -0.5948
     24 C13         9.3826   -1.2096   -0.6425 C.3       1 <0>         0.0776
     25 C14         7.5512   -0.1295   -2.0274 C.3       1 <0>         0.0582
     26 C15         0.8083   -1.9009    3.2624 C.2       1 <0>         0.4413
     27 O3          2.0368   -1.5280    3.6209 O.co2     1 <0>        -0.6529
     28 O4          0.1090   -2.7273    4.0402 O.co2     1 <0>        -0.6565
     29 C16        -3.7926   -0.4576    0.3218 C.3       1 <0>         0.1268
     30 H6         -4.0795   -1.4858    0.5420 H         1 <0>         0.0646
     31 C17        -4.8040    0.5007    0.9540 C.3       1 <0>        -0.1895
     32 O5         -3.7712   -0.2617   -1.0936 O.3       1 <0>        -0.5622
     33 H7          0.6980    1.6538   -0.3848 H         1 <0>         0.0675
     34 H8         -0.9943    1.3530   -0.8474 H         1 <0>         0.0718
     35 H9         -0.5605    1.5391    0.8688 H         1 <0>         0.0591
     36 H10         5.1086    0.3811   -0.6378 H         1 <0>         0.1291
     37 H11         5.3436   -0.4210    0.9513 H         1 <0>         0.1164
     38 H12         4.7307   -3.5946   -1.0153 H         1 <0>         0.4287
     39 H13         3.3622   -2.6933    1.2232 H         1 <0>         0.1572
     40 H14         2.7258   -2.9386   -0.4273 H         1 <0>         0.1364
     41 H15         9.8603   -1.9546   -1.2788 H         1 <0>         0.0681
     42 H16         9.8737   -0.2461   -0.7794 H         1 <0>         0.0841
     43 H17         9.4663   -1.5151    0.4004 H         1 <0>         0.0867
     44 H18         6.4708   -0.1858   -2.1606 H         1 <0>         0.0794
     45 H19         7.8264    0.8770   -1.7122 H         1 <0>         0.0826
     46 H20         8.0461   -0.3631   -2.9700 H         1 <0>         0.0795
     47 H21        -4.5171    1.5289    0.7338 H         1 <0>         0.0678
     48 H22        -5.7952    0.3045    0.5451 H         1 <0>         0.0656
     49 H23        -4.8203    0.3512    2.0336 H         1 <0>         0.0745
     50 H24        -4.6220   -0.4192   -1.5253 H         1 <0>         0.3841
     51 H25         5.3269   -3.3374    0.5004 H         1 <0>         0.4391
@<TRIPOS>BOND
     1    1    2 1
     2    1   33 1
     3    1   34 1
     4    1   35 1
     5    2    3 1
     6    2   12 1
     7    2    4 1
     8    4    5 1
     9    4   10 1
    10    4    6 1
    11    6    7 1
    12    6    8 1
    13    6   29 1
    14    8    9 2
    15    8   10 am
    16   10   11 1
    17   11   12 2
    18   11   26 1
    19   12   13 1
    20   13   14 1
    21   14   15 1
    22   14   20 1
    23   14   16 1
    24   16   17 1
    25   16   36 1
    26   16   37 1
    27   17   18 1
    28   17   19 1
    29   17   21 1
    30   19   20 1
    31   19   38 1
    32   19   51 1
    33   20   39 1
    34   20   40 1
    35   21   22 2
    36   21   23 am
    37   23   24 1
    38   23   25 1
    39   24   41 1
    40   24   42 1
    41   24   43 1
    42   25   44 1
    43   25   45 1
    44   25   46 1
    45   26   27 2
    46   26   28 1
    47   29   30 1
    48   29   31 1
    49   29   32 1
    50   31   47 1
    51   31   48 1
    52   31   49 1
    53   32   50 1
