@<TRIPOS>MOLECULE
ZINC03826253
   53    57     0     0     0
SMALL
USER_CHARGES

@<TRIPOS>ATOM
      1 C1         -0.0415    1.5034   -0.0479 C.3       1 <0>         0.0159
      2 O1          0.0197    0.0758   -0.0333 O.3       1 <0>        -0.3127
      3 C2          0.6244   -0.5275   -1.0928 C.ar      1 <0>         0.0601
      4 C3         -0.1219   -0.8836   -2.2145 C.ar      1 <0>         0.1942
      5 C4          0.5234   -1.5056   -3.2983 C.ar      1 <0>        -0.1558
      6 C5          1.8958   -1.7630   -3.2492 C.ar      1 <0>        -0.0543
      7 C6          2.6157   -1.4089   -2.1426 C.ar      1 <0>         0.0494
      8 C7          1.9886   -0.7854   -1.0626 C.ar      1 <0>         0.1729
      9 N1          2.7374   -0.4235    0.0587 N.pl3     1 <0>        -0.6698
     10 C8          3.4083    0.8776    0.2632 C.3       1 <0>         0.1160
     11 C9          3.5478    0.9910    1.7920 C.3       1 <0>        -0.1041
     12 H1          2.5892    1.2780    2.2243 H         1 <0>         0.1237
     13 C10         4.6067    1.9818    2.2111 C.3       1 <0>        -0.1274
     14 C11         6.0060    1.4895    1.8373 C.3       1 <0>        -0.1485
     15 C12         6.2033    0.1077    2.4729 C.3       1 <0>        -0.0101
     16 N2          5.2439   -0.8195    1.8718 N.4       1 <0>        -0.4970
     17 C13         3.8844   -0.4548    2.2027 C.3       1 <0>         0.0156
     18 H2          3.6589   -0.6473    3.2516 H         1 <0>         0.1630
     19 C14         2.9843   -1.2719    1.2355 C.3       1 <0>         0.1105
     20 F1          3.9427   -1.6583   -2.0964 F         1 <0>        -0.1402
     21 C15        -0.2773   -1.8765   -4.4772 C.2       1 <0>         0.4126
     22 O2          0.2298   -2.4180   -5.4442 O.2       1 <0>        -0.4340
     23 C16        -1.7168   -1.5663   -4.4387 C.2       1 <0>        -0.2808
     24 C17        -2.2380   -0.9518   -3.3158 C.2       1 <0>         0.1398
     25 N3         -1.4782   -0.6301   -2.2629 N.pl3     1 <0>        -0.4576
     26 C18        -2.1119    0.0192   -1.1127 C.3       1 <0>         0.0281
     27 C19        -3.6220    0.2565   -1.1789 C.3       1 <0>        -0.1806
     28 C20        -2.6557    1.4353   -1.3119 C.3       1 <0>        -0.1913
     29 C21        -2.5823   -1.9034   -5.5732 C.2       1 <0>         0.5347
     30 O3         -3.7773   -1.6411   -5.5306 O.co2     1 <0>        -0.6965
     31 O4         -2.1100   -2.4473   -6.5630 O.co2     1 <0>        -0.6587
     32 H3          0.9693    1.9102   -0.0787 H         1 <0>         0.0418
     33 H4         -0.5934    1.8345   -0.9276 H         1 <0>         0.0654
     34 H5         -0.5472    1.8546    0.8517 H         1 <0>         0.0965
     35 H6          2.3867   -2.2412   -4.0838 H         1 <0>         0.1575
     36 H7          4.3898    0.8798   -0.2109 H         1 <0>         0.0594
     37 H8          2.7936    1.6894   -0.1254 H         1 <0>         0.0866
     38 H9          4.4196    2.9350    1.7166 H         1 <0>         0.0966
     39 H10         4.5549    2.1245    3.2905 H         1 <0>         0.0875
     40 H11         6.0929    1.4129    0.7534 H         1 <0>         0.0904
     41 H12         6.7554    2.1822    2.2202 H         1 <0>         0.1146
     42 H13         7.2183   -0.2414    2.2831 H         1 <0>         0.1338
     43 H14         6.0288    0.1702    3.5470 H         1 <0>         0.1320
     44 H15         5.3554   -0.8045    0.8691 H         1 <0>         0.4299
     45 H16         2.0401   -1.5182    1.7212 H         1 <0>         0.0983
     46 H17         3.4978   -2.1851    0.9348 H         1 <0>         0.0738
     47 H18        -3.2934   -0.7242   -3.2873 H         1 <0>         0.1758
     48 H19        -1.6823   -0.2229   -0.1406 H         1 <0>         0.1755
     49 H20        -4.1439   -0.0704   -2.0782 H         1 <0>         0.1140
     50 H21        -4.1861    0.1705   -0.2502 H         1 <0>         0.1129
     51 H22        -2.5842    2.1249   -0.4707 H         1 <0>         0.1072
     52 H23        -2.5419    1.8840   -2.2987 H         1 <0>         0.1029
     53 H24         5.4317   -1.7518    2.2088 H         1 <0>         0.4307
@<TRIPOS>BOND
     1    1    2 1
     2    1   32 1
     3    1   33 1
     4    1   34 1
     5    2    3 1
     6    3    8 ar
     7    3    4 ar
     8    4   25 1
     9    4    5 ar
    10    5    6 ar
    11    5   21 1
    12    6    7 ar
    13    6   35 1
    14    7    8 ar
    15    7   20 1
    16    8    9 1
    17    9   19 1
    18    9   10 1
    19   10   11 1
    20   10   36 1
    21   10   37 1
    22   11   12 1
    23   11   17 1
    24   11   13 1
    25   13   14 1
    26   13   38 1
    27   13   39 1
    28   14   15 1
    29   14   40 1
    30   14   41 1
    31   15   16 1
    32   15   42 1
    33   15   43 1
    34   16   17 1
    35   16   44 1
    36   16   53 1
    37   17   18 1
    38   17   19 1
    39   19   45 1
    40   19   46 1
    41   21   22 2
    42   21   23 1
    43   23   24 2
    44   23   29 1
    45   24   25 1
    46   24   47 1
    47   25   26 1
    48   26   28 1
    49   26   27 1
    50   26   48 1
    51   27   28 1
    52   27   49 1
    53   27   50 1
    54   28   51 1
    55   28   52 1
    56   29   30 2
    57   29   31 1
