@<TRIPOS>MOLECULE
ZINC03779726
   38    41     0     0     0
SMALL
USER_CHARGES
(1-aminocyclopropyl)-fluoro-methyl-oxo-BLAHcarboxylic acid
@<TRIPOS>ATOM
      1 C1          1.4224    1.6161   -0.0028 C.3       1 <0>        -0.1744
      2 C2         -0.0127    1.0858    0.0080 C.3       1 <0>         0.0907
      3 H1          0.0021   -0.0041    0.0020 H         1 <0>         0.1072
      4 C3         -0.7307    1.5803    1.2665 C.3       1 <0>         0.0464
      5 O1         -2.1074    1.1877    1.1931 O.3       1 <0>        -0.3136
      6 C4         -2.7813    1.5925    0.0819 C.ar      1 <0>         0.1011
      7 C5         -4.1440    1.8076    0.1395 C.ar      1 <0>        -0.1134
      8 C6         -4.8403    2.2362   -0.9835 C.ar      1 <0>         0.0992
      9 C7         -4.1737    2.4543   -2.1712 C.ar      1 <0>        -0.0726
     10 C8         -2.7966    2.2390   -2.2428 C.ar      1 <0>        -0.1183
     11 C9         -2.0881    1.7973   -1.1144 C.ar      1 <0>         0.1463
     12 N1         -0.7255    1.5737   -1.1825 N.pl3     1 <0>        -0.4923
     13 C10        -0.0245    1.7858   -2.3076 C.2       1 <0>         0.1546
     14 C11        -0.6089    2.2219   -3.4777 C.2       1 <0>        -0.2590
     15 C12        -2.0591    2.4692   -3.4994 C.2       1 <0>         0.4095
     16 O2         -2.6254    2.8476   -4.5099 O.2       1 <0>        -0.4239
     17 C13         0.2034    2.4366   -4.6834 C.2       1 <0>         0.5024
     18 O3         -0.3221    2.8217   -5.7098 O.co2     1 <0>        -0.5993
     19 F1         -6.1741    2.4394   -0.9124 F         1 <0>        -0.1228
     20 C14        -4.8827    1.5750    1.4324 C.3       1 <0>         0.0099
     21 C15        -5.2707    0.1352    1.7751 C.3       1 <0>        -0.1322
     22 C16        -6.3450    1.1344    1.3411 C.3       1 <0>        -0.1442
     23 H2          1.4071    2.7060    0.0032 H         1 <0>         0.0753
     24 H3          1.9498    1.2553    0.8802 H         1 <0>         0.0880
     25 H4          1.9328    1.2649   -0.8996 H         1 <0>         0.0906
     26 H5         -0.2696    1.1364    2.1488 H         1 <0>         0.1391
     27 H6         -0.6630    2.6667    1.3231 H         1 <0>         0.0816
     28 H7         -4.7156    2.7901   -3.0429 H         1 <0>         0.1651
     29 H8          1.0407    1.6079   -2.2956 H         1 <0>         0.1848
     30 H9         -4.9917   -0.6437    1.0655 H         1 <0>         0.1317
     31 H10        -5.2486   -0.1556    2.8254 H         1 <0>         0.1247
     32 H11        -7.0298    1.5009    2.1058 H         1 <0>         0.1257
     33 H12        -6.7728    1.0128    0.3459 H         1 <0>         0.1425
     34 H13        -3.5265    2.6872    2.5104 H         1 <0>         0.4387
     35 H14        -5.0736    3.2963    2.5454 H         1 <0>         0.4372
     36 O4          1.5314    2.2066   -4.6513 O.co2     1 <0>        -0.7589
     37 N2         -4.5145    2.4450    2.5632 N.4       1 <0>        -0.6052
     38 H15        -4.6907    1.9469    3.4436 H         1 <0>         0.4379
@<TRIPOS>BOND
     1    1    2 1
     2    1   23 1
     3    1   24 1
     4    1   25 1
     5    2    3 1
     6    2   12 1
     7    2    4 1
     8    4    5 1
     9    4   26 1
    10    4   27 1
    11    5    6 1
    12    6   11 ar
    13    6    7 ar
    14    7    8 ar
    15    7   20 1
    16    8    9 ar
    17    8   19 1
    18    9   10 ar
    19    9   28 1
    20   10   15 1
    21   10   11 ar
    22   11   12 1
    23   12   13 1
    24   13   14 2
    25   13   29 1
    26   14   15 1
    27   14   17 1
    28   15   16 2
    29   17   18 2
    30   17   36 1
    31   20   22 1
    32   20   21 1
    33   20   37 1
    34   21   22 1
    35   21   30 1
    36   21   31 1
    37   22   32 1
    38   22   33 1
    39   34   37 1
    40   35   37 1
    41   37   38 1
