@<TRIPOS>MOLECULE
ZINC03913937
   62    65     0     0     0
SMALL
USER_CHARGES

@<TRIPOS>ATOM
      1 C1         -0.7416   -0.3449   -0.2728 C.3       1 <0>        -0.1701
      2 C2         -0.2308    0.8626    0.5159 C.3       1 <0>         0.1055
      3 N1          0.6080    0.4021    1.6252 N.am      1 <0>        -0.6016
      4 C3          0.0031    0.1099    2.9250 C.3       1 <0>         0.0954
      5 C4          0.6711   -1.1032    3.5660 C.3       1 <0>         0.0719
      6 N2          2.1249   -0.9389    3.5840 N.am      1 <0>        -0.5718
      7 C5          2.7532   -0.3513    2.5461 C.2       1 <0>         0.5150
      8 O1          3.9648   -0.3090    2.5047 O.2       1 <0>        -0.4092
      9 C6          1.9343    0.2431    1.4442 C.2       1 <0>         0.5195
     10 O2          2.4580    0.5810    0.4029 O.2       1 <0>        -0.4773
     11 C7          2.8377   -1.3757    4.6412 C.2       1 <0>         0.7026
     12 O3          4.0517   -1.3209    4.6200 O.2       1 <0>        -0.5133
     13 N3          2.2043   -1.8732    5.7218 N.am      1 <0>        -0.7136
     14 C8          2.9707   -2.2433    6.9142 C.3       1 <0>         0.1898
     15 H1          3.8053   -1.5533    7.0384 H         1 <0>         0.1277
     16 C9          3.4981   -3.6463    6.7569 C.ar      1 <0>        -0.1034
     17 C10         2.7067   -4.6215    6.1794 C.ar      1 <0>        -0.0968
     18 C11         3.1904   -5.9083    6.0351 C.ar      1 <0>        -0.1203
     19 C12         4.4658   -6.2199    6.4679 C.ar      1 <0>        -0.1100
     20 C13         5.2576   -5.2445    7.0446 C.ar      1 <0>        -0.1100
     21 C14         4.7754   -3.9566    7.1849 C.ar      1 <0>        -0.0909
     22 C15         2.0779   -2.1753    8.1263 C.2       1 <0>         0.5242
     23 O4          0.9159   -1.8496    8.0061 O.2       1 <0>        -0.5278
     24 N4          2.5709   -2.4763    9.3441 N.am      1 <0>        -0.6865
     25 C16         1.7029   -2.4101   10.5225 C.3       1 <0>         0.0769
     26 H2          0.6497   -2.5452   10.2765 H         1 <0>         0.1312
     27 C17         2.1741   -3.2951   11.6711 C.3       1 <0>         0.1188
     28 H3          1.4086   -3.8764   12.1851 H         1 <0>         0.1577
     29 N5          2.5914   -2.0188   12.2890 N.am      1 <0>        -0.5146
     30 C18         1.9648   -1.2051   11.3917 C.2       1 <0>         0.5107
     31 O5          1.7215   -0.0190   11.3217 O.2       1 <0>        -0.4255
     32 C19         4.0376   -1.8241   12.4389 C.3       1 <0>         0.0229
     33 H4          4.4136   -1.2742   11.5761 H         1 <0>         0.0681
     34 C20         4.7927   -3.1779   12.5453 C.3       1 <0>         0.0475
     35 S1          3.7560   -4.1752   11.3517 S.3       1 <0>        -0.3109
     36 C21         6.2406   -3.0536   12.0667 C.3       1 <0>        -0.1264
     37 C22         4.7202   -3.7527   13.9613 C.3       1 <0>        -0.1298
     38 C23         4.2986   -1.0191   13.6859 C.2       1 <0>         0.5128
     39 O6          3.3868   -0.7802   14.4592 O.co2     1 <0>        -0.6572
     40 O7          5.4215   -0.6068   13.9214 O.co2     1 <0>        -0.6847
     41 H5         -1.3286   -0.9863    0.3846 H         1 <0>         0.0595
     42 H6         -1.3657   -0.0022   -1.0981 H         1 <0>         0.0720
     43 H7          0.1056   -0.9064   -0.6666 H         1 <0>         0.0595
     44 H8          0.3562    1.5040   -0.1415 H         1 <0>         0.0911
     45 H9         -1.0780    1.4241    0.9097 H         1 <0>         0.0873
     46 H10         0.1221    0.9735    3.5793 H         1 <0>         0.0863
     47 H11        -1.0591   -0.0942    2.7896 H         1 <0>         0.1153
     48 H12         0.3092   -1.2149    4.5880 H         1 <0>         0.1147
     49 H13         0.4173   -1.9967    2.9956 H         1 <0>         0.0954
     50 H14         1.2410   -1.9862    5.7100 H         1 <0>         0.4078
     51 H15         1.7103   -4.3780    5.8412 H         1 <0>         0.1169
     52 H16         2.5719   -6.6704    5.5845 H         1 <0>         0.1217
     53 H17         4.8435   -7.2255    6.3558 H         1 <0>         0.1222
     54 H18         6.2538   -5.4880    7.3830 H         1 <0>         0.1263
     55 H19         5.3953   -3.1936    7.6321 H         1 <0>         0.1262
     56 H20         3.5003   -2.7367    9.4403 H         1 <0>         0.4172
     57 H21         6.7637   -2.3187   12.6786 H         1 <0>         0.0985
     58 H22         6.7369   -4.0200   12.1558 H         1 <0>         0.0649
     59 H23         6.2527   -2.7337   11.0248 H         1 <0>         0.0610
     60 H24         3.6777   -3.9176   14.2336 H         1 <0>         0.0639
     61 H25         5.2592   -4.6994   13.9972 H         1 <0>         0.0606
     62 H26         5.1720   -3.0506   14.6620 H         1 <0>         0.0851
@<TRIPOS>BOND
     1    1    2 1
     2    1   41 1
     3    1   42 1
     4    1   43 1
     5    2    3 1
     6    2   44 1
     7    2   45 1
     8    3    9 am
     9    3    4 1
    10    4    5 1
    11    4   46 1
    12    4   47 1
    13    5    6 1
    14    5   48 1
    15    5   49 1
    16    6    7 am
    17    6   11 am
    18    7    8 2
    19    7    9 1
    20    9   10 2
    21   11   12 2
    22   11   13 am
    23   13   14 1
    24   13   50 1
    25   14   15 1
    26   14   16 1
    27   14   22 1
    28   16   21 ar
    29   16   17 ar
    30   17   18 ar
    31   17   51 1
    32   18   19 ar
    33   18   52 1
    34   19   20 ar
    35   19   53 1
    36   20   21 ar
    37   20   54 1
    38   21   55 1
    39   22   23 2
    40   22   24 am
    41   24   25 1
    42   24   56 1
    43   25   26 1
    44   25   30 1
    45   25   27 1
    46   27   28 1
    47   27   35 1
    48   27   29 1
    49   29   30 am
    50   29   32 1
    51   30   31 2
    52   32   33 1
    53   32   34 1
    54   32   38 1
    55   34   35 1
    56   34   36 1
    57   34   37 1
    58   36   57 1
    59   36   58 1
    60   36   59 1
    61   37   60 1
    62   37   61 1
    63   37   62 1
    64   38   39 2
    65   38   40 1
