@<TRIPOS>MOLECULE
ZINC66322939
   53    57     0     0     0
SMALL
USER_CHARGES

@<TRIPOS>ATOM
      1 C1         -0.0184    1.5028    0.0103 C.3       1 <0>        -0.0753
      2 C2          0.0021   -0.0041    0.0020 C.2       1 <0>        -0.0167
      3 C3         -1.0592   -0.7947    0.0026 C.2       1 <0>        -0.0250
      4 O1         -0.6291   -2.0801   -0.0072 O.3       1 <0>        -0.2390
      5 C4          0.7135   -2.0667   -0.0138 C.2       1 <0>         0.5725
      6 O2          1.4398   -3.0416   -0.0232 O.2       1 <0>        -0.4254
      7 O3          1.1106   -0.7840   -0.0132 O.3       1 <0>        -0.2428
      8 C5         -2.4972   -0.3439    0.0131 C.3       1 <0>         0.1369
      9 N1         -3.1462   -0.7478   -1.2413 N.3       1 <0>        -0.5331
     10 C6         -3.2318   -2.2108   -1.3424 C.3       1 <0>         0.0348
     11 C7         -3.7455   -2.5942   -2.7343 C.3       1 <0>         0.1514
     12 N2         -5.0070   -1.8789   -2.9801 N.pl3     1 <0>        -0.6750
     13 C8         -5.0351   -0.4241   -2.7658 C.3       1 <0>         0.1502
     14 C9         -4.4707   -0.1262   -1.3727 C.3       1 <0>         0.0424
     15 C10        -6.1444   -2.5610   -3.4049 C.ar      1 <0>         0.1889
     16 C11        -7.0316   -3.0682   -2.4686 C.ar      1 <0>        -0.1580
     17 C12        -8.1672   -3.7486   -2.8932 C.ar      1 <0>         0.2125
     18 C13        -8.3975   -3.9115   -4.2674 C.ar      1 <0>        -0.1729
     19 C14        -7.4943   -3.3954   -5.2014 C.ar      1 <0>        -0.0594
     20 C15        -6.3850   -2.7236   -4.7715 C.ar      1 <0>         0.0401
     21 F1         -5.5138   -2.2187   -5.6722 F         1 <0>        -0.1378
     22 C16        -9.6040   -4.6342   -4.7037 C.2       1 <0>         0.4269
     23 O4         -9.8538   -4.8053   -5.8842 O.2       1 <0>        -0.4452
     24 C17       -10.4935   -5.1403   -3.6461 C.2       1 <0>        -0.2857
     25 C18       -10.1630   -4.9192   -2.3219 C.2       1 <0>         0.1864
     26 N3         -9.0548   -4.2564   -1.9480 N.pl3     1 <0>        -0.5481
     27 C19        -9.2619   -4.3519   -0.4831 C.3       1 <0>         0.1452
     28 H1         -9.4468   -3.3940    0.0031 H         1 <0>         0.1081
     29 C20       -10.5327   -5.1096   -0.8683 C.3       1 <0>        -0.0804
     30 C21        -8.2167   -5.2030    0.2408 C.3       1 <0>        -0.1579
     31 C22       -11.7168   -5.8707   -3.9928 C.2       1 <0>         0.5369
     32 O5        -12.4518   -6.2888   -3.1077 O.co2     1 <0>        -0.7013
     33 O6        -12.0031   -6.0624   -5.1675 O.co2     1 <0>        -0.6680
     34 H2          1.0042    1.8801    0.0026 H         1 <0>         0.0872
     35 H3         -0.5455    1.8639   -0.8728 H         1 <0>         0.0983
     36 H4         -0.5286    1.8543    0.9071 H         1 <0>         0.0936
     37 H5         -3.0157   -0.8031    0.8548 H         1 <0>         0.0635
     38 H6         -2.5371    0.7411    0.1099 H         1 <0>         0.1143
     39 H7         -2.2440   -2.6446   -1.1870 H         1 <0>         0.0891
     40 H8         -3.9185   -2.5882   -0.5846 H         1 <0>         0.0415
     41 H9         -3.0105   -2.3094   -3.4871 H         1 <0>         0.0610
     42 H10        -3.9199   -3.6693   -2.7769 H         1 <0>         0.0759
     43 H11        -4.4240    0.0693   -3.5217 H         1 <0>         0.0623
     44 H12        -6.0621   -0.0644   -2.8294 H         1 <0>         0.0770
     45 H13        -5.1401   -0.5326   -0.6145 H         1 <0>         0.0418
     46 H14        -4.3813    0.9519   -1.2393 H         1 <0>         0.0857
     47 H15        -6.8415   -2.9357   -1.4138 H         1 <0>         0.1305
     48 H16        -7.6751   -3.5232   -6.2584 H         1 <0>         0.1499
     49 H17       -11.4487   -4.5919   -0.5839 H         1 <0>         0.1120
     50 H18       -10.5245   -6.1531   -0.5535 H         1 <0>         0.1123
     51 H19        -7.2270   -4.7742    0.0838 H         1 <0>         0.0651
     52 H20        -8.4394   -5.2222    1.3076 H         1 <0>         0.0818
     53 H21        -8.2392   -6.2190   -0.1534 H         1 <0>         0.0709
@<TRIPOS>BOND
     1    1    2 1
     2    1   34 1
     3    1   35 1
     4    1   36 1
     5    2    7 1
     6    2    3 2
     7    3    4 1
     8    3    8 1
     9    4    5 1
    10    5    6 2
    11    5    7 1
    12    8    9 1
    13    8   37 1
    14    8   38 1
    15    9   14 1
    16    9   10 1
    17   10   11 1
    18   10   39 1
    19   10   40 1
    20   11   12 1
    21   11   41 1
    22   11   42 1
    23   12   13 1
    24   12   15 1
    25   13   14 1
    26   13   43 1
    27   13   44 1
    28   14   45 1
    29   14   46 1
    30   15   20 ar
    31   15   16 ar
    32   16   17 ar
    33   16   47 1
    34   17   26 1
    35   17   18 ar
    36   18   19 ar
    37   18   22 1
    38   19   20 ar
    39   19   48 1
    40   20   21 1
    41   22   23 2
    42   22   24 1
    43   24   25 2
    44   24   31 1
    45   25   29 1
    46   25   26 1
    47   26   27 1
    48   27   28 1
    49   27   29 1
    50   27   30 1
    51   29   49 1
    52   29   50 1
    53   30   51 1
    54   30   52 1
    55   30   53 1
    56   31   32 2
    57   31   33 1
