@<TRIPOS>MOLECULE
ZINC00538330
   45    48     0     0     0
SMALL
USER_CHARGES

@<TRIPOS>ATOM
      1 C1          0.6639    0.2575    1.1947 C.ar      1 <0>        -0.0728
      2 C2          1.8498    0.9649    1.1844 C.ar      1 <0>        -0.1454
      3 C3          2.3793    1.4135   -0.0141 C.ar      1 <0>         0.1112
      4 C4          1.7207    1.1542   -1.2045 C.ar      1 <0>        -0.1454
      5 C5          0.5343    0.4475   -1.1987 C.ar      1 <0>        -0.0732
      6 C6          0.0021   -0.0041    0.0020 C.ar      1 <0>         0.0975
      7 N1         -1.2002   -0.7215    0.0101 N.pl3     1 <0>        -0.4563
      8 C7         -2.3512   -0.0444    0.1222 C.2       1 <0>         0.1466
      9 C8         -3.5787   -0.6789    0.1379 C.2       1 <0>        -0.2728
     10 C9         -3.6232   -2.1471    0.0274 C.2       1 <0>         0.4105
     11 O1         -4.6811   -2.7524    0.0361 O.2       1 <0>        -0.4282
     12 C10        -2.3369   -2.8534   -0.0945 C.ar      1 <0>        -0.1533
     13 C11        -1.1506   -2.0969   -0.1034 C.ar      1 <0>         0.2024
     14 C12         0.0698   -2.7504   -0.2219 C.ar      1 <0>        -0.1507
     15 C13         0.1041   -4.1312   -0.3346 C.ar      1 <0>         0.1635
     16 C14        -1.0798   -4.8731   -0.3304 C.ar      1 <0>         0.0504
     17 C15        -2.2866   -4.2450   -0.2041 C.ar      1 <0>        -0.0554
     18 F1         -1.0304   -6.2187   -0.4415 F         1 <0>        -0.1359
     19 N2          1.3284   -4.7844   -0.4533 N.pl3     1 <0>        -0.6707
     20 C16         1.9282   -5.0330   -1.7733 C.3       1 <0>         0.1165
     21 C17         3.3796   -4.5425   -1.7475 C.3       1 <0>        -0.0236
     22 N3          4.0898   -5.1770   -0.6298 N.4       1 <0>        -0.5022
     23 C18         3.5039   -4.7445    0.6452 C.3       1 <0>        -0.0232
     24 C19         2.0613   -5.2400    0.7381 C.3       1 <0>         0.1160
     25 C20        -4.8168    0.0968    0.2631 C.2       1 <0>         0.5336
     26 O2         -4.7684    1.3165    0.3547 O.co2     1 <0>        -0.6944
     27 O3         -5.8989   -0.4755    0.2760 O.co2     1 <0>        -0.6570
     28 F2          3.5396    2.1054   -0.0219 F         1 <0>        -0.1335
     29 H1          0.2536   -0.0960    2.1291 H         1 <0>         0.1432
     30 H2          2.3645    1.1688    2.1117 H         1 <0>         0.1455
     31 H3          2.1352    1.5052   -2.1380 H         1 <0>         0.1454
     32 H4          0.0208    0.2461   -2.1272 H         1 <0>         0.1433
     33 H5         -2.3184    1.0321    0.2032 H         1 <0>         0.1730
     34 H6          0.9891   -2.1837   -0.2266 H         1 <0>         0.1373
     35 H7         -3.1996   -4.8220   -0.2001 H         1 <0>         0.1562
     36 H8          1.9063   -6.1010   -1.9904 H         1 <0>         0.0822
     37 H9          1.3715   -4.4896   -2.5368 H         1 <0>         0.1181
     38 H10         3.8689   -4.8056   -2.6853 H         1 <0>         0.1399
     39 H11         3.3952   -3.4601   -1.6204 H         1 <0>         0.1324
     40 H12         4.0137   -6.1799   -0.7105 H         1 <0>         0.4274
     41 H13         4.0848   -5.1563    1.4704 H         1 <0>         0.1402
     42 H14         3.5157   -3.6559    0.6999 H         1 <0>         0.1322
     43 H15         1.5926   -4.8333    1.6342 H         1 <0>         0.1182
     44 H16         2.0531   -6.3292    0.7790 H         1 <0>         0.0817
     45 H17         5.0632   -4.9128   -0.6581 H         1 <0>         0.4298
@<TRIPOS>BOND
     1    1    6 ar
     2    1    2 ar
     3    1   29 1
     4    2    3 ar
     5    2   30 1
     6    3    4 ar
     7    3   28 1
     8    4    5 ar
     9    4   31 1
    10    5    6 ar
    11    5   32 1
    12    6    7 1
    13    7   13 1
    14    7    8 1
    15    8    9 2
    16    8   33 1
    17    9   10 1
    18    9   25 1
    19   10   11 2
    20   10   12 1
    21   12   17 ar
    22   12   13 ar
    23   13   14 ar
    24   14   15 ar
    25   14   34 1
    26   15   16 ar
    27   15   19 1
    28   16   17 ar
    29   16   18 1
    30   17   35 1
    31   19   24 1
    32   19   20 1
    33   20   21 1
    34   20   36 1
    35   20   37 1
    36   21   22 1
    37   21   38 1
    38   21   39 1
    39   22   23 1
    40   22   40 1
    41   22   45 1
    42   23   24 1
    43   23   41 1
    44   23   42 1
    45   24   43 1
    46   24   44 1
    47   25   26 2
    48   25   27 1
