@<TRIPOS>MOLECULE
ZINC00056659
   30    31     0     0     0
SMALL
USER_CHARGES

@<TRIPOS>ATOM
      1 C1         -0.0184    1.5028    0.0103 C.3       1 <0>        -0.0381
      2 C2          0.0021   -0.0041    0.0020 C.2       1 <0>        -0.3715
      3 C3         -1.0799   -0.8076    0.0026 C.2       1 <0>         0.1110
      4 N1         -0.6628   -2.0984   -0.0063 N.2       1 <0>        -0.4349
      5 O1          0.7540   -2.1017   -0.0128 O.3       1 <0>        -0.1785
      6 C4          1.1593   -0.8157   -0.0139 C.2       1 <0>         0.4273
      7 N2          2.4050   -0.3932   -0.0247 N.2       1 <0>        -1.0129
      8 S1          3.6496   -1.4855   -0.0429 S.o2      1 <0>         2.6265
      9 O2          3.6043   -2.1734    1.1997 O.2       1 <0>        -1.0114
     10 O3          3.5786   -2.1613   -1.2908 O.2       1 <0>        -1.0114
     11 C5          5.1513   -0.5639   -0.0539 C.ar      1 <0>        -0.6761
     12 C6          5.7239   -0.1924   -1.2565 C.ar      1 <0>         0.0260
     13 C7          6.9009    0.5299   -1.2688 C.ar      1 <0>        -0.2206
     14 C8          7.5096    0.8833   -0.0712 C.ar      1 <0>         0.2503
     15 C9          6.9317    0.5085    1.1351 C.ar      1 <0>        -0.2207
     16 C10         5.7516   -0.2089    1.1402 C.ar      1 <0>         0.0260
     17 N3          8.7003    1.6134   -0.0800 N.pl3     1 <0>        -0.8751
     18 C11        -2.5151   -0.3483    0.0125 C.3       1 <0>        -0.0707
     19 H1          1.0042    1.8801    0.0026 H         1 <0>         0.0607
     20 H2         -0.5455    1.8639   -0.8728 H         1 <0>         0.0338
     21 H3         -0.5286    1.8543    0.9071 H         1 <0>         0.0339
     22 H4          5.2503   -0.4678   -2.1873 H         1 <0>         0.1369
     23 H5          7.3478    0.8195   -2.2084 H         1 <0>         0.1247
     24 H6          7.4026    0.7813    2.0680 H         1 <0>         0.1247
     25 H7          5.2995   -0.4969    2.0778 H         1 <0>         0.1370
     26 H8          9.1031    1.8743   -0.9229 H         1 <0>         0.3983
     27 H9          9.1244    1.8596    0.7569 H         1 <0>         0.3983
     28 H10        -2.8663   -0.2314   -1.0127 H         1 <0>         0.0711
     29 H11        -3.1299   -1.0882    0.5250 H         1 <0>         0.0641
     30 H12        -2.5873    0.6070    0.5324 H         1 <0>         0.0715
@<TRIPOS>BOND
     1    1    2 1
     2    1   19 1
     3    1   20 1
     4    1   21 1
     5    2    6 1
     6    2    3 2
     7    3    4 1
     8    3   18 1
     9    4    5 1
    10    5    6 1
    11    6    7 2
    12    7    8 1
    13    8    9 2
    14    8   10 2
    15    8   11 1
    16   11   16 ar
    17   11   12 ar
    18   12   13 ar
    19   12   22 1
    20   13   14 ar
    21   13   23 1
    22   14   15 ar
    23   14   17 1
    24   15   16 ar
    25   15   24 1
    26   16   25 1
    27   17   26 1
    28   17   27 1
    29   18   28 1
    30   18   29 1
    31   18   30 1
