@<TRIPOS>MOLECULE
ZINC03871880
   42    44     0     0     0
SMALL
USER_CHARGES

@<TRIPOS>ATOM
      1 C1         -0.0187    1.5258    0.0104 C.3       1 <0>        -0.1234
      2 C2          0.0021   -0.0041    0.0020 C.3       1 <0>         0.0320
      3 C3          0.9183   -0.5578   -1.1267 C.3       1 <0>         0.0284
      4 H1          1.7655    0.1146   -1.2616 H         1 <0>         0.0788
      5 N1          1.4152   -1.8973   -0.7968 N.am      1 <0>        -0.5093
      6 C4          1.5639   -2.1961    0.6340 C.3       1 <0>         0.1057
      7 H2          1.1313   -3.1348    0.9800 H         1 <0>         0.1490
      8 S1          0.9226   -0.6800    1.4567 S.3       1 <0>        -0.3090
      9 C5          3.0673   -2.2015    0.4210 C.3       1 <0>         0.0879
     10 H3          3.5574   -3.1223    0.7376 H         1 <0>         0.1302
     11 C6          2.7129   -2.1678   -1.0358 C.2       1 <0>         0.4955
     12 O1          3.3561   -2.3252   -2.0520 O.2       1 <0>        -0.4369
     13 N2          3.7428   -0.9941    0.9027 N.am      1 <0>        -0.6783
     14 C7          5.0446   -1.0426    1.2482 C.2       1 <0>         0.5565
     15 O2          5.6569   -2.0859    1.1604 O.2       1 <0>        -0.5556
     16 C8          5.7395    0.1994    1.7437 C.3       1 <0>        -0.1518
     17 H4          5.2414    0.5599    2.6438 H         1 <0>         0.0987
     18 C9          7.1775   -0.1217    2.0598 C.ar      1 <0>        -0.0141
     19 C10         8.0149   -0.5933    1.0662 C.ar      1 <0>        -0.0787
     20 C11         9.3340   -0.8879    1.3561 C.ar      1 <0>        -0.1255
     21 C12         9.8159   -0.7104    2.6396 C.ar      1 <0>        -0.1387
     22 C13         8.9787   -0.2379    3.6330 C.ar      1 <0>        -0.1307
     23 C14         7.6607    0.0607    3.3421 C.ar      1 <0>        -0.1169
     24 C15         5.6849    1.2643    0.6788 C.2       1 <0>         0.5096
     25 O3          5.1330    1.0358   -0.3841 O.co2     1 <0>        -0.6660
     26 O4          6.1928    2.3543    0.8800 O.co2     1 <0>        -0.6819
     27 C16         0.1332   -0.6267   -2.4112 C.2       1 <0>         0.5181
     28 O5          0.1177    0.3290   -3.1682 O.co2     1 <0>        -0.6871
     29 O6         -0.4864   -1.6381   -2.6935 O.co2     1 <0>        -0.6680
     30 C17        -1.4126   -0.5802   -0.0861 C.3       1 <0>        -0.1183
     31 H5          1.0039    1.9031    0.0027 H         1 <0>         0.0714
     32 H6         -0.5459    1.8868   -0.8726 H         1 <0>         0.0837
     33 H7         -0.5289    1.8773    0.9072 H         1 <0>         0.0615
     34 H8          3.2531   -0.1597    0.9729 H         1 <0>         0.4166
     35 H9          7.6385   -0.7319    0.0635 H         1 <0>         0.1184
     36 H10         9.9881   -1.2570    0.5800 H         1 <0>         0.1137
     37 H11        10.8463   -0.9412    2.8663 H         1 <0>         0.1106
     38 H12         9.3551   -0.0996    4.6358 H         1 <0>         0.1124
     39 H13         7.0077    0.4334    4.1173 H         1 <0>         0.1152
     40 H14        -1.8843   -0.2455   -1.0100 H         1 <0>         0.0753
     41 H15        -1.3627   -1.6690   -0.0774 H         1 <0>         0.0675
     42 H16        -1.9986   -0.2365    0.7662 H         1 <0>         0.0533
@<TRIPOS>BOND
     1    1    2 1
     2    1   31 1
     3    1   32 1
     4    1   33 1
     5    2    8 1
     6    2    3 1
     7    2   30 1
     8    3    4 1
     9    3    5 1
    10    3   27 1
    11    5   11 am
    12    5    6 1
    13    6    7 1
    14    6    8 1
    15    6    9 1
    16    9   10 1
    17    9   11 1
    18    9   13 1
    19   11   12 2
    20   13   14 am
    21   13   34 1
    22   14   15 2
    23   14   16 1
    24   16   17 1
    25   16   18 1
    26   16   24 1
    27   18   23 ar
    28   18   19 ar
    29   19   20 ar
    30   19   35 1
    31   20   21 ar
    32   20   36 1
    33   21   22 ar
    34   21   37 1
    35   22   23 ar
    36   22   38 1
    37   23   39 1
    38   24   25 2
    39   24   26 1
    40   27   28 2
    41   27   29 1
    42   30   40 1
    43   30   41 1
    44   30   42 1
