@<TRIPOS>MOLECULE
ZINC04215219
   49    52     0     0     0
SMALL
USER_CHARGES

@<TRIPOS>ATOM
      1 C1          2.0919   -1.9857    4.6138 C.2       1 <0>        -0.1556
      2 C2          2.7213   -0.9271    3.9861 C.2       1 <0>        -0.1401
      3 C3          3.9025   -1.1438    3.3575 C.2       1 <0>        -0.1350
      4 S1          4.1589   -2.8872    3.6439 S.3       1 <0>         0.0453
      5 C4          2.6745   -3.2092    4.5821 C.2       1 <0>        -0.1708
      6 C5          4.7731   -0.1667    2.6103 C.3       1 <0>        -0.0516
      7 C6          5.7582    0.4593    3.5636 C.2       1 <0>         0.5191
      8 O1          5.7538    0.1431    4.7344 O.2       1 <0>        -0.5087
      9 N1          6.6442    1.3705    3.1150 N.am      1 <0>        -0.7066
     10 C7          7.6019    1.9790    4.0417 C.3       1 <0>         0.1234
     11 H1          7.8097    1.3459    4.9042 H         1 <0>         0.1486
     12 C8          8.8580    2.4906    3.3562 C.3       1 <0>         0.1345
     13 H2          9.7970    2.3007    3.8762 H         1 <0>         0.1528
     14 N2          8.2219    3.8226    3.5843 N.am      1 <0>        -0.5741
     15 C9          7.2494    3.4014    4.4160 C.2       1 <0>         0.5430
     16 O2          6.4406    3.9310    5.1484 O.2       1 <0>        -0.4058
     17 C10         8.5532    5.0248    2.9247 C.2       1 <0>         0.1739
     18 C11         9.2011    4.9997    1.7701 C.2       1 <0>        -0.2717
     19 C12         9.7179    3.8160    1.0192 C.3       1 <0>        -0.0224
     20 S2          8.9195    2.2513    1.5483 S.3       1 <0>        -0.2068
     21 C13         9.4492    6.3409    1.1294 C.3       1 <0>         0.0791
     22 N3         10.8886    6.6130    1.1078 N.ar      1 <0>        -0.3030
     23 C14        11.4498    7.1659    2.1646 C.ar      1 <0>         0.1471
     24 C15        12.8038    7.4393    2.1873 C.ar      1 <0>        -0.0792
     25 C16        13.5786    7.1206    1.0679 C.ar      1 <0>        -0.0312
     26 C17        12.9415    6.5354   -0.0305 C.ar      1 <0>        -0.1119
     27 C18        11.5831    6.2923    0.0344 C.ar      1 <0>         0.1079
     28 C19        15.0341    7.3957    1.0461 C.2       1 <0>         0.5565
     29 O3         15.5706    7.9053    2.0100 O.2       1 <0>        -0.5019
     30 N4         15.7633    7.0808   -0.0427 N.am      1 <0>        -0.8365
     31 C20         8.1759    6.3154    3.5235 C.2       1 <0>         0.5204
     32 O4          8.9695    7.2466    3.5201 O.co2     1 <0>        -0.6715
     33 O5          7.0688    6.4569    4.0245 O.co2     1 <0>        -0.6076
     34 H3          1.1522   -1.8393    5.1256 H         1 <0>         0.1345
     35 H4          2.2783    0.0578    3.9962 H         1 <0>         0.1324
     36 H5          2.3303   -4.1378    5.0129 H         1 <0>         0.1859
     37 H6          5.3132   -0.6906    1.8217 H         1 <0>         0.1141
     38 H7          4.1501    0.6113    2.1689 H         1 <0>         0.1209
     39 H8          6.6477    1.6234    2.1785 H         1 <0>         0.4141
     40 H9          9.5388    3.9654   -0.0456 H         1 <0>         0.1163
     41 H10        10.7912    3.7293    1.1883 H         1 <0>         0.0863
     42 H11         9.0657    6.3326    0.1091 H         1 <0>         0.1203
     43 H12         8.9413    7.1168    1.7022 H         1 <0>         0.1773
     44 H13        10.8429    7.4088    3.0242 H         1 <0>         0.2418
     45 H14        13.2569    7.8928    3.0564 H         1 <0>         0.1910
     46 H15        13.5035    6.2738   -0.9148 H         1 <0>         0.1787
     47 H16        11.0827    5.8366   -0.8073 H         1 <0>         0.2034
     48 H17        15.3350    6.6740   -0.8122 H         1 <0>         0.4043
     49 H18        16.7163    7.2609   -0.0570 H         1 <0>         0.4192
@<TRIPOS>BOND
     1    1    5 2
     2    1    2 1
     3    1   34 1
     4    2    3 2
     5    2   35 1
     6    3    4 1
     7    3    6 1
     8    4    5 1
     9    5   36 1
    10    6    7 1
    11    6   37 1
    12    6   38 1
    13    7    8 2
    14    7    9 am
    15    9   10 1
    16    9   39 1
    17   10   11 1
    18   10   15 1
    19   10   12 1
    20   12   13 1
    21   12   20 1
    22   12   14 1
    23   14   15 am
    24   14   17 1
    25   15   16 2
    26   17   18 2
    27   17   31 1
    28   18   19 1
    29   18   21 1
    30   19   20 1
    31   19   40 1
    32   19   41 1
    33   21   22 1
    34   21   42 1
    35   21   43 1
    36   22   27 ar
    37   22   23 ar
    38   23   24 ar
    39   23   44 1
    40   24   25 ar
    41   24   45 1
    42   25   26 ar
    43   25   28 1
    44   26   27 ar
    45   26   46 1
    46   27   47 1
    47   28   29 2
    48   28   30 am
    49   30   48 1
    50   30   49 1
    51   31   32 2
    52   31   33 1
