@<TRIPOS>MOLECULE
ZINC03830405
   42    45     0     0     0
SMALL
USER_CHARGES

@<TRIPOS>ATOM
      1 C1          0.0503    1.5043   -0.0208 C.3       1 <0>        -0.0540
      2 C2          0.0609   -0.0027   -0.0242 C.2       1 <0>         0.0543
      3 N1          0.0300   -0.8471   -1.0351 N.2       1 <0>        -0.2689
      4 N2          0.0450   -2.0971   -0.8676 N.2       1 <0>        -0.2934
      5 C3          0.0930   -2.6398    0.3425 C.2       1 <0>         0.0519
      6 S1          0.1270   -1.1558    1.3440 S.3       1 <0>        -0.0121
      7 S2          0.1221   -4.3342    0.8250 S.3       1 <0>         0.0649
      8 C4          0.0714   -5.2389   -0.7465 C.3       1 <0>        -0.0469
      9 C5          0.0915   -6.7208   -0.4738 C.2       1 <0>        -0.2178
     10 C6         -1.0736   -7.3442   -0.5710 C.2       1 <0>         0.1674
     11 N3         -1.1614   -8.7345   -0.3838 N.am      1 <0>        -0.5566
     12 C7         -0.1495   -9.6175    0.2523 C.3       1 <0>         0.1171
     13 H1         -0.1931   -9.6783    1.3397 H         1 <0>         0.1480
     14 C8         -0.8235  -10.7551   -0.4845 C.3       1 <0>         0.1329
     15 H2         -1.0907  -11.5995    0.1509 H         1 <0>         0.1557
     16 C9         -1.9372   -9.7646   -0.6885 C.2       1 <0>         0.5284
     17 O1         -3.1021   -9.8691   -1.0098 O.2       1 <0>        -0.4496
     18 N4         -0.1416  -11.1548   -1.7180 N.am      1 <0>        -0.6894
     19 C10        -0.2935  -12.4054   -2.1970 C.2       1 <0>         0.5093
     20 O2         -0.9947  -13.1998   -1.6070 O.2       1 <0>        -0.4979
     21 C11         0.4079  -12.8166   -3.4659 C.3       1 <0>         0.0995
     22 N5          0.0843  -14.2121   -3.7725 N.pl3     1 <0>        -0.3021
     23 C12        -0.4330  -14.6783   -4.9243 C.2       1 <0>         0.1640
     24 N6         -0.5661  -15.9742   -4.7797 N.2       1 <0>        -0.3067
     25 N7         -0.1522  -16.2876   -3.6005 N.2       1 <0>        -0.0775
     26 N8          0.2468  -15.2259   -2.9913 N.2       1 <0>        -0.0635
     27 S3          1.4701   -9.0907   -0.4046 S.3       1 <0>        -0.2189
     28 C13         1.4242   -7.3053   -0.1332 C.3       1 <0>        -0.0223
     29 C14        -2.2889   -6.5726   -0.8777 C.2       1 <0>         0.5275
     30 O3         -2.6760   -6.4751   -2.0343 O.co2     1 <0>        -0.6582
     31 O4         -2.9120   -6.0286    0.0238 O.co2     1 <0>        -0.6482
     32 H3          1.0744    1.8749   -0.0634 H         1 <0>         0.0919
     33 H4         -0.5033    1.8657   -0.8874 H         1 <0>         0.0979
     34 H5         -0.4280    1.8622    0.8909 H         1 <0>         0.0879
     35 H6         -0.8405   -4.9808   -1.2850 H         1 <0>         0.1176
     36 H7          0.9383   -4.9686   -1.3495 H         1 <0>         0.1011
     37 H8          0.4192  -10.5195   -2.1899 H         1 <0>         0.4188
     38 H9          0.0788  -12.1786   -4.2861 H         1 <0>         0.1497
     39 H10         1.4851  -12.7137   -3.3352 H         1 <0>         0.1428
     40 H11        -0.6893  -14.0973   -5.7979 H         1 <0>         0.2367
     41 H12         2.1885   -6.8286   -0.7469 H         1 <0>         0.1218
     42 H13         1.6403   -7.1089    0.9169 H         1 <0>         0.0968
@<TRIPOS>BOND
     1    1    2 1
     2    1   32 1
     3    1   33 1
     4    1   34 1
     5    2    6 1
     6    2    3 2
     7    3    4 1
     8    4    5 2
     9    5    6 1
    10    5    7 1
    11    7    8 1
    12    8    9 1
    13    8   35 1
    14    8   36 1
    15    9   28 1
    16    9   10 2
    17   10   11 1
    18   10   29 1
    19   11   16 am
    20   11   12 1
    21   12   13 1
    22   12   14 1
    23   12   27 1
    24   14   15 1
    25   14   16 1
    26   14   18 1
    27   16   17 2
    28   18   19 am
    29   18   37 1
    30   19   20 2
    31   19   21 1
    32   21   22 1
    33   21   38 1
    34   21   39 1
    35   22   26 1
    36   22   23 1
    37   23   24 2
    38   23   40 1
    39   24   25 1
    40   25   26 2
    41   27   28 1
    42   28   41 1
    43   28   42 1
    44   29   30 2
    45   29   31 1
