@<TRIPOS>MOLECULE
ZINC01530585
   48    51     0     0     0
SMALL
USER_CHARGES

@<TRIPOS>ATOM
      1 C1         -0.1549    1.4196    0.0256 C.3       1 <0>         0.0900
      2 N1         -0.0883   -0.0438    0.0092 N.pl3     1 <0>        -0.3711
      3 C2         -0.0480   -0.8528   -1.0758 C.2       1 <0>         0.2245
      4 N2          0.0068   -2.0905   -0.6334 N.2       1 <0>        -0.3350
      5 N3          0.0034   -2.1097    0.6506 N.2       1 <0>        -0.0335
      6 N4         -0.0465   -0.9089    1.1166 N.2       1 <0>        -0.0953
      7 S1         -0.0661   -0.3437   -2.7625 S.3       1 <0>         0.0336
      8 C3          0.0079   -1.9001   -3.6915 C.3       1 <0>        -0.0369
      9 C4         -0.0011   -1.6041   -5.1691 C.2       1 <0>        -0.2215
     10 C5          1.1711   -1.6775   -5.7824 C.2       1 <0>         0.1710
     11 N5          1.2856   -1.3746   -7.1502 N.am      1 <0>        -0.5559
     12 C6          0.1830   -1.2866   -8.1425 C.3       1 <0>         0.1169
     13 H1         -0.1249   -2.2312   -8.5909 H         1 <0>         0.1470
     14 C7          1.1337   -0.4561   -8.9778 C.3       1 <0>         0.1294
     15 H2          1.2356   -0.7987  -10.0075 H         1 <0>         0.1535
     16 C8          2.1848   -0.9939   -8.0457 C.2       1 <0>         0.5287
     17 O1          3.3952   -1.0556   -8.0952 O.2       1 <0>        -0.4523
     18 N6          0.9173    0.9888   -8.8697 N.am      1 <0>        -0.6896
     19 C9          1.2993    1.8043   -9.8724 C.2       1 <0>         0.4978
     20 O2          1.8221    1.3420  -10.8643 O.2       1 <0>        -0.5200
     21 C10         1.0767    3.2906   -9.7612 C.3       1 <0>         0.1433
     22 H3          0.0232    3.4863   -9.5614 H         1 <0>         0.1374
     23 C11         1.9124    3.8407   -8.6342 C.ar      1 <0>        -0.1282
     24 C12         3.2297    4.1941   -8.8593 C.ar      1 <0>        -0.1035
     25 C13         3.9963    4.6987   -7.8255 C.ar      1 <0>        -0.1139
     26 C14         3.4453    4.8503   -6.5668 C.ar      1 <0>        -0.1098
     27 C15         2.1277    4.4978   -6.3419 C.ar      1 <0>        -0.1105
     28 C16         1.3600    3.9972   -7.3767 C.ar      1 <0>        -0.1050
     29 O3          1.4544    3.9218  -10.9863 O.3       1 <0>        -0.5277
     30 S2         -1.1669   -0.3706   -7.3233 S.3       1 <0>        -0.2220
     31 C17        -1.3321   -1.2700   -5.7612 C.3       1 <0>        -0.0215
     32 C18         2.3661   -2.0801   -5.0232 C.2       1 <0>         0.5279
     33 O4          2.7214   -3.2508   -5.0172 O.co2     1 <0>        -0.6586
     34 O5          3.0042   -1.2440   -4.3982 O.co2     1 <0>        -0.6485
     35 H4          0.8552    1.8292    0.0278 H         1 <0>         0.0930
     36 H5         -0.6867    1.7690   -0.8593 H         1 <0>         0.1001
     37 H6         -0.6826    1.7493    0.9205 H         1 <0>         0.1021
     38 H7          0.9225   -2.4341   -3.4334 H         1 <0>         0.1180
     39 H8         -0.8556   -2.5154   -3.4389 H         1 <0>         0.1008
     40 H9          0.4992    1.3586   -8.0764 H         1 <0>         0.4161
     41 H10         3.6601    4.0756   -9.8427 H         1 <0>         0.1216
     42 H11         5.0257    4.9741   -8.0012 H         1 <0>         0.1252
     43 H12         4.0444    5.2439   -5.7590 H         1 <0>         0.1247
     44 H13         1.6974    4.6159   -5.3584 H         1 <0>         0.1278
     45 H14         0.3295    3.7253   -7.2020 H         1 <0>         0.1274
     46 H15         2.3815    3.7894  -11.2275 H         1 <0>         0.3842
     47 H16        -1.8822   -2.1934   -5.9422 H         1 <0>         0.0976
     48 H17        -1.8917   -0.6575   -5.0543 H         1 <0>         0.1206
@<TRIPOS>BOND
     1    1    2 1
     2    1   35 1
     3    1   36 1
     4    1   37 1
     5    2    6 1
     6    2    3 1
     7    3    4 2
     8    3    7 1
     9    4    5 1
    10    5    6 2
    11    7    8 1
    12    8    9 1
    13    8   38 1
    14    8   39 1
    15    9   31 1
    16    9   10 2
    17   10   11 1
    18   10   32 1
    19   11   16 am
    20   11   12 1
    21   12   13 1
    22   12   14 1
    23   12   30 1
    24   14   15 1
    25   14   16 1
    26   14   18 1
    27   16   17 2
    28   18   19 am
    29   18   40 1
    30   19   20 2
    31   19   21 1
    32   21   22 1
    33   21   23 1
    34   21   29 1
    35   23   28 ar
    36   23   24 ar
    37   24   25 ar
    38   24   41 1
    39   25   26 ar
    40   25   42 1
    41   26   27 ar
    42   26   43 1
    43   27   28 ar
    44   27   44 1
    45   28   45 1
    46   29   46 1
    47   30   31 1
    48   31   47 1
    49   31   48 1
    50   32   33 2
    51   32   34 1
