@<TRIPOS>MOLECULE
ZINC03830413
   49    52     0     0     0
SMALL
USER_CHARGES
7-[2-(2-aminothiazol-4-yl)-2-methoxyimino-acetyl]amino-3-[(1-methyltetrazol-5-yl)sulfanylmethyl]-8-oxo-5-thia-1-azabicyclo[4.2.0]oct-2-ene-2-carboxylic acid
@<TRIPOS>ATOM
      1 C1          1.3933   -1.0707   -1.1292 C.3       1 <0>         0.0939
      2 N1          1.0539    0.3349   -0.8935 N.pl3     1 <0>        -0.3822
      3 C2          1.9100    1.3665   -0.7032 C.2       1 <0>         0.2360
      4 N2          1.1805    2.4472   -0.5292 N.2       1 <0>        -0.3371
      5 N3         -0.0697    2.1618   -0.5977 N.2       1 <0>        -0.0389
      6 N4         -0.2303    0.9016   -0.8163 N.2       1 <0>        -0.1084
      7 S1          3.6697    1.2782   -0.6914 S.3       1 <0>         0.0761
      8 C3          4.0697    3.0169   -0.3866 C.3       1 <0>        -0.0595
      9 C4          5.5662    3.1865   -0.3346 C.2       1 <0>        -0.1789
     10 C5          6.1742    3.3257   -1.5041 C.2       1 <0>         0.1526
     11 N5          7.5576    3.5460   -1.5583 N.am      1 <0>        -0.5539
     12 C6          8.5560    3.2883   -0.4855 C.3       1 <0>         0.1187
     13 H1          8.8793    2.2507   -0.4021 H         1 <0>         0.1407
     14 C7          9.5293    4.2103   -1.1963 C.3       1 <0>         0.1278
     15 H2         10.4857    3.7498   -1.4442 H         1 <0>         0.1531
     16 C8          8.4956    4.1301   -2.2948 C.2       1 <0>         0.5188
     17 O1          8.5154    4.4808   -3.4557 O.2       1 <0>        -0.4429
     18 N6          9.6618    5.5357   -0.5864 N.am      1 <0>        -0.6754
     19 C9         10.7908    6.2498   -0.7648 C.2       1 <0>         0.5359
     20 O2         11.6618    5.8349   -1.5034 O.2       1 <0>        -0.5057
     21 C10        10.9698    7.5412   -0.0603 C.2       1 <0>         0.1768
     22 N7         12.1010    8.1812   -0.1506 N.2       1 <0>        -0.2761
     23 O3         13.1194    7.7012   -1.0094 O.3       1 <0>        -0.1817
     24 C11        14.3042    8.5001   -1.0093 C.3       1 <0>         0.0325
     25 C12         9.8645    8.1033    0.7453 C.2       1 <0>         0.1323
     26 C13         9.9779    9.3480    1.3049 C.2       1 <0>        -0.1823
     27 S2          8.3971    9.4891    2.1279 S.3       1 <0>         0.0148
     28 C14         7.7530    7.8900    1.6571 C.2       1 <0>         0.4099
     29 N8          8.7481    7.4029    0.9405 N.2       1 <0>        -0.5751
     30 N9          6.5315    7.3140    1.9635 N.pl3     1 <0>        -0.7859
     31 S3          7.8211    3.9520    1.0478 S.3       1 <0>        -0.2286
     32 C15         6.1779    3.1705    1.0286 C.3       1 <0>        -0.0293
     33 C16         5.3921    3.2540   -2.7515 C.2       1 <0>         0.4814
     34 O4          5.9192    3.5147   -3.8149 O.co2     1 <0>        -0.5895
     35 H3          1.4928   -1.2457   -2.2004 H         1 <0>         0.0894
     36 H4          2.3354   -1.3050   -0.6337 H         1 <0>         0.0961
     37 H5          0.6041   -1.7070   -0.7289 H         1 <0>         0.0984
     38 H6          3.6623    3.6298   -1.1907 H         1 <0>         0.1650
     39 H7          3.6354    3.3285    0.5633 H         1 <0>         0.0738
     40 H8          8.9369    5.8993   -0.0541 H         1 <0>         0.4319
     41 H9         14.7209    8.5320   -0.0026 H         1 <0>         0.0517
     42 H10        15.0351    8.0661   -1.6916 H         1 <0>         0.1025
     43 H11        14.0602    9.5118   -1.3337 H         1 <0>         0.0524
     44 H12        10.7963   10.0513    1.2600 H         1 <0>         0.2052
     45 H13         6.3171    6.4273    1.6337 H         1 <0>         0.4225
     46 H14         5.8904    7.7972    2.5078 H         1 <0>         0.4234
     47 H15         5.5232    3.7049    1.7171 H         1 <0>         0.1188
     48 H16         6.2729    2.1372    1.3623 H         1 <0>         0.0980
     49 O5          4.0924    2.8994   -2.7126 O.co2     1 <0>        -0.6990
@<TRIPOS>BOND
     1    1    2 1
     2    1   35 1
     3    1   36 1
     4    1   37 1
     5    2    6 1
     6    2    3 1
     7    3    4 2
     8    3    7 1
     9    4    5 1
    10    5    6 2
    11    7    8 1
    12    8    9 1
    13    8   38 1
    14    8   39 1
    15    9   32 1
    16    9   10 2
    17   10   11 1
    18   10   33 1
    19   11   16 am
    20   11   12 1
    21   12   13 1
    22   12   14 1
    23   12   31 1
    24   14   15 1
    25   14   16 1
    26   14   18 1
    27   16   17 2
    28   18   19 am
    29   18   40 1
    30   19   20 2
    31   19   21 1
    32   21   22 2
    33   21   25 1
    34   22   23 1
    35   23   24 1
    36   24   41 1
    37   24   42 1
    38   24   43 1
    39   25   29 1
    40   25   26 2
    41   26   27 1
    42   26   44 1
    43   27   28 1
    44   28   29 2
    45   28   30 1
    46   30   45 1
    47   30   46 1
    48   31   32 1
    49   32   47 1
    50   32   48 1
    51   33   34 2
    52   33   49 1
