@<TRIPOS>MOLECULE
ZINC04468780
   46    48     0     0     0
SMALL
USER_CHARGES

@<TRIPOS>ATOM
      1 C1          2.2601   -3.5083    0.0622 C.3       1 <0>        -0.1444
      2 C2          1.1579   -2.4828   -0.0060 C.2       1 <0>         0.4509
      3 O1          1.4296   -1.3075   -0.0745 O.2       1 <0>        -0.5036
      4 O2         -0.1257   -2.8751    0.0094 O.3       1 <0>        -0.3743
      5 C3         -1.1184   -1.8494   -0.0581 C.3       1 <0>         0.1395
      6 C4         -2.4847   -2.4782   -0.1523 C.2       1 <0>        -0.1899
      7 C5         -3.5001   -1.6397   -0.2990 C.2       1 <0>         0.1027
      8 N1         -4.8127   -2.1207   -0.4449 N.am      1 <0>        -0.5497
      9 C6         -5.3061   -3.4858   -0.1263 C.3       1 <0>         0.1223
     10 H1         -5.5813   -3.6572    0.9144 H         1 <0>         0.1408
     11 C7         -6.4603   -3.1785   -1.0561 C.3       1 <0>         0.1192
     12 H2         -7.4425   -3.3665   -0.6223 H         1 <0>         0.1464
     13 C8         -5.9932   -1.7548   -0.9225 C.2       1 <0>         0.5280
     14 O3         -6.5033   -0.6805   -1.1612 O.2       1 <0>        -0.4391
     15 N2         -6.3080   -3.7369   -2.4019 N.am      1 <0>        -0.6741
     16 C9         -7.3976   -3.9916   -3.1531 C.2       1 <0>         0.5371
     17 O4         -8.5081   -3.8436   -2.6826 O.2       1 <0>        -0.5093
     18 C10        -7.2414   -4.4520   -4.5529 C.2       1 <0>         0.1767
     19 N3         -8.2886   -4.5792   -5.3176 N.2       1 <0>        -0.2763
     20 O5         -9.5613   -4.1730   -4.8484 O.3       1 <0>        -0.1828
     21 C11       -10.6179   -4.3696   -5.7902 C.3       1 <0>         0.0332
     22 C12        -5.8970   -4.7671   -5.0819 C.2       1 <0>         0.1324
     23 C13        -5.7266   -5.0695   -6.4066 C.2       1 <0>        -0.1822
     24 S1         -3.9615   -5.3488   -6.4607 S.3       1 <0>         0.0118
     25 C14        -3.6299   -5.0383   -4.7323 C.2       1 <0>         0.4095
     26 N4         -4.8355   -4.7549   -4.2769 N.2       1 <0>        -0.5727
     27 N5         -2.4247   -5.0795   -4.0515 N.pl3     1 <0>        -0.7865
     28 S2         -4.0502   -4.6437   -0.7699 S.3       1 <0>        -0.2284
     29 C15        -2.5251   -3.9702   -0.0744 C.3       1 <0>        -0.0253
     30 C16        -3.2509   -0.1891   -0.3089 C.2       1 <0>         0.5142
     31 O6         -2.1036    0.2348   -0.2768 O.co2     1 <0>        -0.6587
     32 O7         -4.1910    0.5929   -0.3493 O.co2     1 <0>        -0.6466
     33 H3          3.2266   -3.0050    0.0382 H         1 <0>         0.0958
     34 H4          2.1698   -4.0777    0.9872 H         1 <0>         0.0948
     35 H5          2.1810   -4.1838   -0.7896 H         1 <0>         0.0942
     36 H6         -1.0638   -1.2314    0.8381 H         1 <0>         0.0877
     37 H7         -0.9419   -1.2303   -0.9376 H         1 <0>         0.1033
     38 H8         -5.4229   -3.9234   -2.7523 H         1 <0>         0.4317
     39 H9        -11.5594   -4.0340   -5.3554 H         1 <0>         0.1022
     40 H10       -10.4103   -3.7966   -6.6940 H         1 <0>         0.0520
     41 H11       -10.6899   -5.4282   -6.0397 H         1 <0>         0.0516
     42 H12        -6.4572   -5.1245   -7.2000 H         1 <0>         0.2052
     43 H13        -1.6078   -5.3023   -4.5246 H         1 <0>         0.4224
     44 H14        -2.3975   -4.8856   -3.1014 H         1 <0>         0.4215
     45 H15        -1.6719   -4.3774   -0.6170 H         1 <0>         0.1236
     46 H16        -2.4573   -4.2733    0.9704 H         1 <0>         0.0932
@<TRIPOS>BOND
     1    1    2 1
     2    1   33 1
     3    1   34 1
     4    1   35 1
     5    2    3 2
     6    2    4 1
     7    4    5 1
     8    5    6 1
     9    5   36 1
    10    5   37 1
    11    6   29 1
    12    6    7 2
    13    7    8 1
    14    7   30 1
    15    8   13 am
    16    8    9 1
    17    9   10 1
    18    9   11 1
    19    9   28 1
    20   11   12 1
    21   11   13 1
    22   11   15 1
    23   13   14 2
    24   15   16 am
    25   15   38 1
    26   16   17 2
    27   16   18 1
    28   18   19 2
    29   18   22 1
    30   19   20 1
    31   20   21 1
    32   21   39 1
    33   21   40 1
    34   21   41 1
    35   22   26 1
    36   22   23 2
    37   23   24 1
    38   23   42 1
    39   24   25 1
    40   25   26 2
    41   25   27 1
    42   27   43 1
    43   27   44 1
    44   28   29 1
    45   29   45 1
    46   29   46 1
    47   30   31 2
    48   30   32 1
