@<TRIPOS>MOLECULE
ZINC03830434
   55    58     0     0     0
SMALL
USER_CHARGES
8-[2-[2-(aminomethyl)phenyl]acetyl]amino-4-[[1-(carboxymethyl)tetrazol-5-yl]sulfanylmethyl]-7-oxo-2-thia-6-azabicyclo[4.2.0]oct-4-ene-5-carboxylic acid
@<TRIPOS>ATOM
      1 C1         -0.3139   -7.7553   -2.5649 C.ar      1 <0>        -0.0823
      2 C2          0.8132   -8.2917   -3.1594 C.ar      1 <0>        -0.1155
      3 C3          2.0364   -7.6652   -3.0128 C.ar      1 <0>        -0.0865
      4 C4          2.1322   -6.4999   -2.2750 C.ar      1 <0>        -0.1492
      5 C5          1.0063   -5.9662   -1.6767 C.ar      1 <0>        -0.0405
      6 C6         -0.2174   -6.5925   -1.8240 C.ar      1 <0>        -0.0989
      7 C7          1.1115   -4.6984   -0.8689 C.3       1 <0>        -0.1102
      8 C8          1.0178   -3.5079   -1.7881 C.2       1 <0>         0.5101
      9 O1          0.8793   -3.6727   -2.9816 O.2       1 <0>        -0.5153
     10 N1          1.0880   -2.2600   -1.2838 N.am      1 <0>        -0.6934
     11 C9          0.9969   -1.1026   -2.1773 C.3       1 <0>         0.1215
     12 H1          0.4818   -1.3277   -3.1112 H         1 <0>         0.1492
     13 C10         0.4939    0.1627   -1.4906 C.3       1 <0>         0.1266
     14 H2         -0.2405    0.7418   -2.0503 H         1 <0>         0.1490
     15 N2          1.9164    0.6259   -1.5620 N.am      1 <0>        -0.5557
     16 C11         2.3154   -0.3725   -2.3689 C.2       1 <0>         0.5329
     17 O2          3.3263   -0.6000   -2.9994 O.2       1 <0>        -0.4451
     18 C12         2.4933    1.6681   -0.8176 C.2       1 <0>         0.1355
     19 C13         1.9210    2.0848    0.3017 C.2       1 <0>        -0.1642
     20 C14         0.6413    1.6225    0.9186 C.3       1 <0>        -0.0191
     21 S1          0.1299   -0.0065    0.2893 S.3       1 <0>        -0.2446
     22 C15         2.6561    3.1667    1.0503 C.3       1 <0>        -0.0640
     23 S2          1.8543    4.7610    0.7482 S.3       1 <0>         0.0567
     24 C16         2.8883    5.8113    1.7137 C.2       1 <0>         0.2327
     25 N3          3.9290    5.4412    2.4281 N.2       1 <0>        -0.3471
     26 N4          4.4618    6.4567    3.0062 N.2       1 <0>        -0.0580
     27 N5          3.8085    7.5300    2.7183 N.2       1 <0>        -0.0937
     28 N6          2.7579    7.1505    1.8647 N.pl3     1 <0>        -0.3252
     29 C17         1.7396    8.0180    1.2674 C.3       1 <0>         0.0703
     30 C18         0.5512    8.1065    2.1899 C.2       1 <0>         0.4620
     31 O3          0.5545    7.5066    3.2387 O.co2     1 <0>        -0.6141
     32 C19         3.7409    2.2999   -1.2837 C.2       1 <0>         0.4875
     33 O4          4.6255    1.6179   -1.7617 O.co2     1 <0>        -0.6068
     34 C20         3.4650   -5.8138   -2.1195 C.3       1 <0>         0.0431
     35 H3         -1.2698   -8.2447   -2.6797 H         1 <0>         0.1350
     36 H4          0.7378   -9.2002   -3.7386 H         1 <0>         0.1339
     37 H5          2.9168   -8.0840   -3.4775 H         1 <0>         0.1327
     38 H6         -1.0979   -6.1733   -1.3599 H         1 <0>         0.1357
     39 H7          2.0675   -4.6792   -0.3457 H         1 <0>         0.0848
     40 H8          0.2993   -4.6617   -0.1429 H         1 <0>         0.1252
     41 H9          1.1988   -2.1282   -0.3292 H         1 <0>         0.4165
     42 H10        -0.1409    2.3489    0.6984 H         1 <0>         0.1085
     43 H11         0.7710    1.5603    1.9990 H         1 <0>         0.1264
     44 H12         2.6373    2.9470    2.1177 H         1 <0>         0.0867
     45 H13         3.6895    3.2087    0.7061 H         1 <0>         0.1407
     46 H14         2.1553    9.0138    1.1138 H         1 <0>         0.1116
     47 H15         1.4257    7.6035    0.3094 H         1 <0>         0.1102
     48 H16         4.1377   -6.1433   -2.9113 H         1 <0>         0.1433
     49 H17         3.3278   -4.7345   -2.1850 H         1 <0>         0.1407
     50 H18         4.9370   -5.7076   -0.6842 H         1 <0>         0.4424
     51 H19         3.4084   -5.9188   -0.0642 H         1 <0>         0.4309
     52 O5         -0.5110    8.8519    1.8465 O.co2     1 <0>        -0.7507
     53 O6          3.9002    3.6342   -1.1795 O.co2     1 <0>        -0.6937
     54 N7          4.0446   -6.1808   -0.8154 N.4       1 <0>        -0.6456
     55 H20         4.1963   -7.1959   -0.7872 H         1 <0>         0.4375
@<TRIPOS>BOND
     1    1    6 ar
     2    1    2 ar
     3    1   35 1
     4    2    3 ar
     5    2   36 1
     6    3    4 ar
     7    3   37 1
     8    4    5 ar
     9    4   34 1
    10    5    6 ar
    11    5    7 1
    12    6   38 1
    13    7    8 1
    14    7   39 1
    15    7   40 1
    16    8    9 2
    17    8   10 am
    18   10   11 1
    19   10   41 1
    20   11   12 1
    21   11   16 1
    22   11   13 1
    23   13   14 1
    24   13   21 1
    25   13   15 1
    26   15   16 am
    27   15   18 1
    28   16   17 2
    29   18   19 2
    30   18   32 1
    31   19   20 1
    32   19   22 1
    33   20   21 1
    34   20   42 1
    35   20   43 1
    36   22   23 1
    37   22   44 1
    38   22   45 1
    39   23   24 1
    40   24   28 1
    41   24   25 2
    42   25   26 1
    43   26   27 2
    44   27   28 1
    45   28   29 1
    46   29   30 1
    47   29   46 1
    48   29   47 1
    49   30   31 2
    50   30   52 1
    51   32   33 2
    52   32   53 1
    53   34   48 1
    54   34   49 1
    55   34   54 1
    56   50   54 1
    57   51   54 1
    58   54   55 1
