@<TRIPOS>MOLECULE
ZINC28467879
   52    55     0     0     0
SMALL
USER_CHARGES
(6R,7R)-7-[[(2Z)-2-(2-aminothiazol-4-yl)-2-methoxyimino-acetyl]amino]-3-[(2-methyl-5,6-dioxo-1H-1,2,4-triazin-3-yl)sulfanylmethyl]-8-oxo-5-thia-1-azabicyclo[4.2.0]oct-2-ene-2-carboxylic acid
@<TRIPOS>ATOM
      1 C1          1.2252    3.0836    0.0489 C.3       1 <0>         0.1043
      2 N1         -0.1252    2.5458    0.2314 N.pl3     1 <0>        -0.3781
      3 C2         -1.1865    3.3942    0.2637 C.2       1 <0>         0.3653
      4 N2         -2.4279    2.9627    0.4260 N.2       1 <0>        -0.6425
      5 C3         -2.6926    1.6623    0.5598 C.2       1 <0>         0.4437
      6 O1         -3.8382    1.2775    0.7031 O.2       1 <0>        -0.5490
      7 C4         -1.5600    0.6832    0.5387 C.2       1 <0>         0.3793
      8 O2         -1.7615   -0.5071    0.6634 O.3       1 <0>        -0.6046
      9 N3         -0.3061    1.1628    0.3710 N.2       1 <0>        -0.4878
     10 S1         -0.9096    5.0746    0.0896 S.3       1 <0>         0.0109
     11 C5         -2.6089    5.6870    0.2063 C.3       1 <0>        -0.0514
     12 C6         -2.6119    7.1883    0.0758 C.2       1 <0>        -0.1605
     13 C7         -2.6044    7.6619   -1.1621 C.2       1 <0>         0.1325
     14 N4         -2.6635    9.0440   -1.3891 N.am      1 <0>        -0.5405
     15 C8         -2.3662   10.1323   -0.4188 C.3       1 <0>         0.1362
     16 H1         -1.3280   10.4545   -0.2506 H         1 <0>         0.1437
     17 C9         -3.1239   11.1034   -1.3052 C.3       1 <0>         0.1056
     18 H2         -2.8102   12.1316   -1.5386 H         1 <0>         0.1602
     19 C10        -3.0885    9.9420   -2.2703 C.2       1 <0>         0.5257
     20 O3         -3.3575    9.8579   -3.4500 O.2       1 <0>        -0.4509
     21 N5         -4.4632   11.4457   -0.8201 N.am      1 <0>        -0.7011
     22 C11        -5.0324   12.6131   -1.1803 C.2       1 <0>         0.5341
     23 O4         -4.4771   13.3379   -1.9820 O.2       1 <0>        -0.5186
     24 C12        -6.3355   13.0127   -0.5987 C.2       1 <0>         0.1813
     25 N6         -6.9444   14.0785   -1.0353 N.2       1 <0>        -0.2822
     26 O5         -6.3123   14.9153   -1.9867 O.3       1 <0>        -0.1830
     27 C13        -7.0938   16.0465   -2.3760 C.3       1 <0>         0.0309
     28 C14        -6.9447   12.2016    0.4773 C.2       1 <0>         0.1393
     29 C15        -8.2075   12.4822    0.9265 C.2       1 <0>        -0.1929
     30 S2         -8.4042   11.2211    2.1784 S.3       1 <0>        -0.0079
     31 C16        -6.7989   10.4594    1.9869 C.2       1 <0>         0.4272
     32 N7         -6.2697   11.1923    1.0256 N.2       1 <0>        -0.5817
     33 N8         -6.2540    9.3837    2.6677 N.pl3     1 <0>        -0.8067
     34 S3         -3.2079    9.6609    1.1306 S.3       1 <0>        -0.2580
     35 C17        -2.6169    7.9550    1.3583 C.3       1 <0>        -0.0253
     36 C18        -2.5388    6.7319   -2.3039 C.2       1 <0>         0.4789
     37 O6         -2.6749    7.1500   -3.4366 O.co2     1 <0>        -0.6066
     38 O7         -2.3278    5.4178   -2.0914 O.co2     1 <0>        -0.6790
     39 H3          1.1745    4.1786   -0.0422 H         1 <0>         0.0808
     40 H4          1.6683    2.6598   -0.8643 H         1 <0>         0.0675
     41 H5          1.8467    2.8162    0.9162 H         1 <0>         0.0651
     42 H6         -3.2132    5.2476   -0.6010 H         1 <0>         0.1636
     43 H7         -3.0351    5.4027    1.1797 H         1 <0>         0.0700
     44 H8         -5.0042   10.7500   -0.1619 H         1 <0>         0.4459
     45 H9         -6.5350   16.6421   -3.1129 H         1 <0>         0.1016
     46 H10        -7.3093   16.6649   -1.4922 H         1 <0>         0.0504
     47 H11        -8.0386   15.7032   -2.8226 H         1 <0>         0.0511
     48 H12        -8.8957   13.2522    0.6105 H         1 <0>         0.2015
     49 H13        -5.2391    9.0359    2.4246 H         1 <0>         0.4444
     50 H14        -6.8360    8.8770    3.4516 H         1 <0>         0.4463
     51 H15        -3.2789    7.4559    2.0813 H         1 <0>         0.1188
     52 H16        -1.5955    7.9968    1.7645 H         1 <0>         0.1021
@<TRIPOS>BOND
     1    1    2 1
     2    1   39 1
     3    1   40 1
     4    1   41 1
     5    2    9 1
     6    2    3 1
     7    3    4 2
     8    3   10 1
     9    4    5 1
    10    5    6 2
    11    5    7 1
    12    7    8 1
    13    7    9 2
    14   10   11 1
    15   11   12 1
    16   11   42 1
    17   11   43 1
    18   12   35 1
    19   12   13 2
    20   13   14 1
    21   13   36 1
    22   14   19 am
    23   14   15 1
    24   15   16 1
    25   15   17 1
    26   15   34 1
    27   17   18 1
    28   17   19 1
    29   17   21 1
    30   19   20 2
    31   21   22 am
    32   21   44 1
    33   22   23 2
    34   22   24 1
    35   24   25 2
    36   24   28 1
    37   25   26 1
    38   26   27 1
    39   27   45 1
    40   27   46 1
    41   27   47 1
    42   28   32 1
    43   28   29 2
    44   29   30 1
    45   29   48 1
    46   30   31 1
    47   31   32 2
    48   31   33 1
    49   33   49 1
    50   33   50 1
    51   34   35 1
    52   35   51 1
    53   35   52 1
    54   36   37 2
    55   36   38 1
