@<TRIPOS>MOLECULE
ZINC34781667
   40    42     0     0     0
SMALL
USER_CHARGES

@<TRIPOS>ATOM
      1 C1         -0.0184    1.5028    0.0103 C.3       1 <0>        -0.0696
      2 C2          0.0021   -0.0041    0.0020 C.2       1 <0>        -0.1825
      3 C3         -1.1812   -0.6001    0.0049 C.2       1 <0>         0.0802
      4 N1         -1.2792   -2.0012   -0.0500 N.am      1 <0>        -0.5492
      5 C4         -0.1995   -2.9851    0.2230 C.3       1 <0>         0.1198
      6 H1         -0.0517   -3.2448    1.2712 H         1 <0>         0.1367
      7 C5         -1.0295   -3.9685   -0.5740 C.3       1 <0>         0.1213
      8 H2         -1.2069   -4.9156   -0.0644 H         1 <0>         0.1449
      9 C6         -2.1293   -2.9585   -0.3915 C.2       1 <0>         0.5254
     10 O1         -3.3354   -3.0033   -0.5114 O.2       1 <0>        -0.4420
     11 N2         -0.5900   -4.1339   -1.9617 N.am      1 <0>        -0.6876
     12 C7         -0.8644   -5.2752   -2.6240 C.2       1 <0>         0.4923
     13 O2         -1.4752   -6.1653   -2.0711 O.2       1 <0>        -0.5345
     14 C8         -0.4124   -5.4454   -4.0514 C.3       1 <0>         0.1192
     15 H3         -0.5514   -4.5085   -4.5908 H         1 <0>         0.1144
     16 C9          1.0454   -5.8268   -4.0746 C.ar      1 <0>        -0.0747
     17 C10         1.4210   -7.1365   -3.8414 C.ar      1 <0>        -0.0966
     18 C11         2.7582   -7.4863   -3.8627 C.ar      1 <0>        -0.1204
     19 C12         3.7197   -6.5265   -4.1176 C.ar      1 <0>        -0.1170
     20 C13         3.3441   -5.2169   -4.3517 C.ar      1 <0>        -0.1158
     21 C14         2.0066   -4.8679   -4.3347 C.ar      1 <0>        -0.1028
     22 N3         -1.2053   -6.5023   -4.6935 N.3       1 <0>        -0.8130
     23 S1          1.2943   -2.3448   -0.6082 S.3       1 <0>        -0.2376
     24 C15         1.3546   -0.6399   -0.0143 C.3       1 <0>        -0.0261
     25 C16        -2.4062    0.2135    0.0668 C.2       1 <0>         0.5185
     26 O3         -2.3284    1.4336    0.1152 O.co2     1 <0>        -0.6629
     27 O4         -3.5022   -0.3302    0.0698 O.co2     1 <0>        -0.6574
     28 H4          1.0042    1.8801    0.0026 H         1 <0>         0.0234
     29 H5         -0.5455    1.8639   -0.8728 H         1 <0>         0.0742
     30 H6         -0.5286    1.8543    0.9071 H         1 <0>         0.0803
     31 H7         -0.1015   -3.4221   -2.4039 H         1 <0>         0.4149
     32 H8          0.6698   -7.8864   -3.6423 H         1 <0>         0.1215
     33 H9          3.0517   -8.5095   -3.6798 H         1 <0>         0.1219
     34 H10         4.7645   -6.7996   -4.1335 H         1 <0>         0.1209
     35 H11         4.0954   -4.4669   -4.5505 H         1 <0>         0.1241
     36 H12         1.7129   -3.8455   -4.5212 H         1 <0>         0.1255
     37 H13        -1.0932   -7.3817   -4.2116 H         1 <0>         0.3504
     38 H14        -2.1784   -6.2415   -4.7483 H         1 <0>         0.3514
     39 H15         2.0130   -0.0577   -0.6589 H         1 <0>         0.1172
     40 H16         1.7594   -0.6397    0.9977 H         1 <0>         0.0912
@<TRIPOS>BOND
     1    1    2 1
     2    1   28 1
     3    1   29 1
     4    1   30 1
     5    2   24 1
     6    2    3 2
     7    3    4 1
     8    3   25 1
     9    4    9 am
    10    4    5 1
    11    5    6 1
    12    5    7 1
    13    5   23 1
    14    7    8 1
    15    7    9 1
    16    7   11 1
    17    9   10 2
    18   11   12 am
    19   11   31 1
    20   12   13 2
    21   12   14 1
    22   14   15 1
    23   14   16 1
    24   14   22 1
    25   16   21 ar
    26   16   17 ar
    27   17   18 ar
    28   17   32 1
    29   18   19 ar
    30   18   33 1
    31   19   20 ar
    32   19   34 1
    33   20   21 ar
    34   20   35 1
    35   21   36 1
    36   22   37 1
    37   22   38 1
    38   23   24 1
    39   24   39 1
    40   24   40 1
    41   25   26 2
    42   25   27 1
