@<TRIPOS>MOLECULE
ZINC03978006
   46    49     0     0     0
SMALL
USER_CHARGES

@<TRIPOS>ATOM
      1 C1         -0.1577    1.4826    0.2365 C.3       1 <0>        -0.0982
      2 C2         -0.0582   -0.0155    0.1072 C.2       1 <0>         0.1278
      3 C3         -1.0932   -0.8972    0.2148 C.2       1 <0>        -0.2806
      4 C4         -0.5280   -2.2409    0.0188 C.2       1 <0>         0.1789
      5 N1          0.7559   -2.0874   -0.1854 N.2       1 <0>        -0.2798
      6 O1          1.0576   -0.7071   -0.1382 O.3       1 <0>        -0.0654
      7 C5         -1.2705   -3.5240    0.0471 C.ar      1 <0>        -0.0286
      8 C6         -2.3058   -3.7542   -0.8588 C.ar      1 <0>        -0.0021
      9 C7         -2.9934   -4.9519   -0.8276 C.ar      1 <0>        -0.1084
     10 C8         -2.6574   -5.9216    0.0996 C.ar      1 <0>        -0.0750
     11 C9         -1.6321   -5.6993    1.0009 C.ar      1 <0>        -0.1073
     12 C10        -0.9327   -4.5083    0.9760 C.ar      1 <0>         0.0063
     13 Cl1         0.3586   -4.2340    2.1034 Cl        1 <0>        -0.0367
     14 Cl2        -2.7298   -2.5379   -2.0227 Cl        1 <0>        -0.0200
     15 C11        -2.5044   -0.5675    0.4771 C.2       1 <0>         0.5959
     16 O2         -3.2339   -0.2435   -0.4405 O.2       1 <0>        -0.5052
     17 N2         -2.9874   -0.6248    1.7341 N.am      1 <0>        -0.6894
     18 C12        -4.3912   -0.2968    1.9950 C.3       1 <0>         0.0769
     19 H1         -5.0279   -0.4530    1.1242 H         1 <0>         0.1305
     20 C13        -4.9362   -0.9391    3.2658 C.3       1 <0>         0.1197
     21 H2         -5.9294   -1.3833    3.2009 H         1 <0>         0.1569
     22 N3         -4.8344    0.4259    3.8238 N.am      1 <0>        -0.5148
     23 C14        -4.5802    1.0539    2.6401 C.2       1 <0>         0.5116
     24 O3         -4.5282    2.2062    2.2654 O.2       1 <0>        -0.4268
     25 C15        -3.8353    0.6109    4.8819 C.3       1 <0>         0.0246
     26 H3         -2.9053    0.9627    4.4351 H         1 <0>         0.0670
     27 C16        -3.5598   -0.7109    5.6508 C.3       1 <0>         0.0483
     28 S1         -3.6970   -1.9053    4.2197 S.3       1 <0>        -0.3151
     29 C17        -4.6330   -0.9812    6.7073 C.3       1 <0>        -0.1292
     30 C18        -2.1578   -0.7236    6.2634 C.3       1 <0>        -0.1259
     31 C19        -4.3356    1.6475    5.8545 C.2       1 <0>         0.5128
     32 O4         -5.4787    2.0627    5.7686 O.co2     1 <0>        -0.6567
     33 O5         -3.5972    2.0711    6.7274 O.co2     1 <0>        -0.6857
     34 H4          0.8287    1.9255    0.0989 H         1 <0>         0.0949
     35 H5         -0.8383    1.8684   -0.5225 H         1 <0>         0.1058
     36 H6         -0.5355    1.7375    1.2267 H         1 <0>         0.1030
     37 H7         -3.7952   -5.1314   -1.5285 H         1 <0>         0.1477
     38 H8         -3.1982   -6.8562    0.1202 H         1 <0>         0.1484
     39 H9         -1.3748   -6.4603    1.7227 H         1 <0>         0.1480
     40 H10        -2.4056   -0.8832    2.4659 H         1 <0>         0.4145
     41 H11        -5.6068   -1.0607    6.2239 H         1 <0>         0.0640
     42 H12        -4.4070   -1.9137    7.2245 H         1 <0>         0.0601
     43 H13        -4.6499   -0.1619    7.4260 H         1 <0>         0.0849
     44 H14        -2.0587    0.1077    6.9614 H         1 <0>         0.0983
     45 H15        -2.0013   -1.6633    6.7931 H         1 <0>         0.0641
     46 H16        -1.4147   -0.6244    5.4722 H         1 <0>         0.0599
@<TRIPOS>BOND
     1    1    2 1
     2    1   34 1
     3    1   35 1
     4    1   36 1
     5    2    6 1
     6    2    3 2
     7    3    4 1
     8    3   15 1
     9    4    5 2
    10    4    7 1
    11    5    6 1
    12    7   12 ar
    13    7    8 ar
    14    8    9 ar
    15    8   14 1
    16    9   10 ar
    17    9   37 1
    18   10   11 ar
    19   10   38 1
    20   11   12 ar
    21   11   39 1
    22   12   13 1
    23   15   16 2
    24   15   17 am
    25   17   18 1
    26   17   40 1
    27   18   19 1
    28   18   23 1
    29   18   20 1
    30   20   21 1
    31   20   28 1
    32   20   22 1
    33   22   23 am
    34   22   25 1
    35   23   24 2
    36   25   26 1
    37   25   27 1
    38   25   31 1
    39   27   28 1
    40   27   29 1
    41   27   30 1
    42   29   41 1
    43   29   42 1
    44   29   43 1
    45   30   44 1
    46   30   45 1
    47   30   46 1
    48   31   32 2
    49   31   33 1
