@<TRIPOS>MOLECULE
ZINC04099034
   48    51     0     0     0
SMALL
USER_CHARGES

@<TRIPOS>ATOM
      1 C1          1.1542    1.1757   -3.9834 C.3       1 <0>        -0.0461
      2 N1          1.1050   -0.2760   -3.7643 N.4       1 <0>        -0.3824
      3 C2          2.3169   -0.8940   -4.3169 C.3       1 <0>        -0.0230
      4 C3          2.2146   -2.4177   -4.1919 C.3       1 <0>         0.1182
      5 N2          1.9496   -2.7533   -2.7843 N.pl3     1 <0>        -0.6709
      6 C4          0.8496   -2.0558   -2.1006 C.3       1 <0>         0.1181
      7 C5          1.0163   -0.5492   -2.3243 C.3       1 <0>        -0.0228
      8 C6          2.7186   -3.7042   -2.1178 C.ar      1 <0>         0.1645
      9 C7          3.8584   -3.3105   -1.4348 C.ar      1 <0>        -0.1505
     10 C8          4.6269   -4.2575   -0.7693 C.ar      1 <0>         0.2024
     11 C9          4.2320   -5.6076   -0.8007 C.ar      1 <0>        -0.1536
     12 C10         3.0809   -5.9898   -1.4936 C.ar      1 <0>        -0.0555
     13 C11         2.3316   -5.0465   -2.1384 C.ar      1 <0>         0.0504
     14 F1          1.2147   -5.4142   -2.8035 F         1 <0>        -0.1358
     15 C12         5.0558   -6.6006   -0.0912 C.2       1 <0>         0.4106
     16 O1          4.7603   -7.7830   -0.0860 O.2       1 <0>        -0.4284
     17 C13         6.2521   -6.1059    0.6118 C.2       1 <0>        -0.2728
     18 C14         6.5394   -4.7548    0.5724 C.2       1 <0>         0.1466
     19 N3          5.7654   -3.8802   -0.0849 N.pl3     1 <0>        -0.4565
     20 C15         6.1259   -2.5274   -0.0770 C.ar      1 <0>         0.0978
     21 C16         5.6534   -1.6876    0.9232 C.ar      1 <0>        -0.0729
     22 C17         6.0106   -0.3537    0.9294 C.ar      1 <0>        -0.1454
     23 C18         6.8394    0.1468   -0.0609 C.ar      1 <0>         0.1110
     24 C19         7.3117   -0.6888   -1.0592 C.ar      1 <0>        -0.1456
     25 C20         6.9612   -2.0245   -1.0661 C.ar      1 <0>        -0.0728
     26 F2          7.1873    1.4523   -0.0532 F         1 <0>        -0.1337
     27 C21         7.1235   -7.0320    1.3420 C.2       1 <0>         0.5335
     28 O2          8.1152   -6.6102    1.9227 O.co2     1 <0>        -0.6945
     29 O3          6.8594   -8.2270    1.3708 O.co2     1 <0>        -0.6570
     30 H1          2.0279    1.5897   -3.4800 H         1 <0>         0.1204
     31 H2          1.2200    1.3799   -5.0521 H         1 <0>         0.1229
     32 H3          0.2513    1.6348   -3.5808 H         1 <0>         0.1229
     33 H4          2.4173   -0.6215   -5.3675 H         1 <0>         0.1370
     34 H5          3.1885   -0.5418   -3.7651 H         1 <0>         0.1304
     35 H6          1.3983   -2.7824   -4.8153 H         1 <0>         0.0814
     36 H7          3.1525   -2.8749   -4.5071 H         1 <0>         0.1181
     37 H8         -0.1046   -2.3839   -2.5129 H         1 <0>         0.0814
     38 H9          0.8850   -2.2737   -1.0332 H         1 <0>         0.1181
     39 H10         1.9272   -0.2073   -1.8328 H         1 <0>         0.1304
     40 H11         0.1583   -0.0225   -1.9066 H         1 <0>         0.1370
     41 H12         4.1487   -2.2703   -1.4202 H         1 <0>         0.1370
     42 H13         2.7811   -7.0271   -1.5154 H         1 <0>         0.1560
     43 H14         7.4164   -4.3919    1.0878 H         1 <0>         0.1728
     44 H15         5.0068   -2.0775    1.6954 H         1 <0>         0.1433
     45 H16         5.6431    0.2997    1.7068 H         1 <0>         0.1454
     46 H17         7.9579   -0.2965   -1.8305 H         1 <0>         0.1453
     47 H18         7.3330   -2.6767   -1.8425 H         1 <0>         0.1433
     48 H19         0.2943   -0.6576   -4.2283 H         1 <0>         0.4241
@<TRIPOS>BOND
     1    1    2 1
     2    1   30 1
     3    1   31 1
     4    1   32 1
     5    2    7 1
     6    2    3 1
     7    2   48 1
     8    3    4 1
     9    3   33 1
    10    3   34 1
    11    4    5 1
    12    4   35 1
    13    4   36 1
    14    5    6 1
    15    5    8 1
    16    6    7 1
    17    6   37 1
    18    6   38 1
    19    7   39 1
    20    7   40 1
    21    8   13 ar
    22    8    9 ar
    23    9   10 ar
    24    9   41 1
    25   10   19 1
    26   10   11 ar
    27   11   12 ar
    28   11   15 1
    29   12   13 ar
    30   12   42 1
    31   13   14 1
    32   15   16 2
    33   15   17 1
    34   17   18 2
    35   17   27 1
    36   18   19 1
    37   18   43 1
    38   19   20 1
    39   20   25 ar
    40   20   21 ar
    41   21   22 ar
    42   21   44 1
    43   22   23 ar
    44   22   45 1
    45   23   24 ar
    46   23   26 1
    47   24   25 ar
    48   24   46 1
    49   25   47 1
    50   27   28 2
    51   27   29 1
