@<TRIPOS>MOLECULE
ZINC03607120
   49    52     0     0     0
SMALL
USER_CHARGES

@<TRIPOS>ATOM
      1 C1          0.0703    1.3683    0.2046 C.3       1 <0>        -0.1796
      2 C2          0.0786   -0.1604    0.1419 C.3       1 <0>         0.0099
      3 H1          0.5768   -0.4839   -0.7721 H         1 <0>         0.1447
      4 C3         -1.3629   -0.6799    0.1494 C.3       1 <0>         0.1287
      5 N1         -1.3287   -2.1489    0.2204 N.pl3     1 <0>        -0.6633
      6 C4         -0.4982   -2.7735    1.2617 C.3       1 <0>         0.1158
      7 C5          0.9024   -2.1551    1.2017 C.3       1 <0>        -0.0286
      8 N2          0.7965   -0.6943    1.3061 N.4       1 <0>        -0.4998
      9 C6         -2.0641   -2.9282   -0.6747 C.ar      1 <0>         0.1506
     10 C7         -3.3735   -3.2950   -0.3599 C.ar      1 <0>         0.0557
     11 C8         -4.1045   -4.0580   -1.2269 C.ar      1 <0>        -0.0533
     12 C9         -3.5393   -4.4733   -2.4353 C.ar      1 <0>        -0.1534
     13 C10        -2.2212   -4.1102   -2.7648 C.ar      1 <0>         0.1952
     14 C11        -1.4891   -3.3276   -1.8740 C.ar      1 <0>         0.0537
     15 O1         -0.2137   -2.9609   -2.1757 O.3       1 <0>        -0.3146
     16 C12         0.8307   -3.8424   -1.7584 C.3       1 <0>         0.0065
     17 N3         -1.6627   -4.5214   -3.9586 N.pl3     1 <0>        -0.4586
     18 C13        -2.3247   -5.2694   -4.8484 C.2       1 <0>         0.1374
     19 C14        -3.6248   -5.6876   -4.6354 C.2       1 <0>        -0.2779
     20 C15        -4.3034   -5.2962   -3.3880 C.2       1 <0>         0.4114
     21 O2         -5.4490   -5.6398   -3.1537 O.2       1 <0>        -0.4305
     22 C16        -4.3174   -6.5064   -5.6352 C.2       1 <0>         0.5340
     23 O3         -3.7442   -6.8252   -6.6689 O.co2     1 <0>        -0.6962
     24 O4         -5.4689   -6.8713   -5.4364 O.co2     1 <0>        -0.6575
     25 C17        -0.2869   -4.1212   -4.2641 C.3       1 <0>         0.0291
     26 C18         0.2950   -4.5620   -5.6087 C.3       1 <0>        -0.1804
     27 C19         0.7744   -5.2220   -4.3143 C.3       1 <0>        -0.1927
     28 F1         -3.9212   -2.8942    0.8082 F         1 <0>        -0.1324
     29 H2          1.0957    1.7377    0.1996 H         1 <0>         0.0828
     30 H3         -0.4630    1.7645   -0.6595 H         1 <0>         0.1081
     31 H4         -0.4279    1.6917    1.1186 H         1 <0>         0.0816
     32 H5         -1.8906   -0.2834    1.0168 H         1 <0>         0.0808
     33 H6         -1.8690   -0.3691   -0.7646 H         1 <0>         0.1173
     34 H7         -0.9387   -2.5884    2.2414 H         1 <0>         0.0842
     35 H8         -0.4328   -3.8468    1.0831 H         1 <0>         0.1147
     36 H9          1.5035   -2.5359    2.0274 H         1 <0>         0.1401
     37 H10         1.3757   -2.4184    0.2557 H         1 <0>         0.1327
     38 H11         1.7216   -0.2930    1.3424 H         1 <0>         0.4267
     39 H12        -5.1170   -4.3397   -0.9782 H         1 <0>         0.1587
     40 H13         0.6892   -4.8186   -2.2222 H         1 <0>         0.0714
     41 H14         1.7944   -3.4327   -2.0609 H         1 <0>         0.0963
     42 H15         0.8052   -3.9483   -0.6738 H         1 <0>         0.0397
     43 H16        -1.8271   -5.5556   -5.7632 H         1 <0>         0.1757
     44 H17         0.0158   -3.1473   -3.8793 H         1 <0>         0.1743
     45 H18        -0.3457   -5.1497   -6.2660 H         1 <0>         0.1146
     46 H19         0.9807   -3.8780   -6.1088 H         1 <0>         0.1127
     47 H20         1.7755   -4.9723   -3.9629 H         1 <0>         0.1060
     48 H21         0.4491   -6.2440   -4.1201 H         1 <0>         0.1034
     49 H22         0.2951   -0.4542    2.1481 H         1 <0>         0.4245
@<TRIPOS>BOND
     1    1    2 1
     2    1   29 1
     3    1   30 1
     4    1   31 1
     5    2    3 1
     6    2    8 1
     7    2    4 1
     8    4    5 1
     9    4   32 1
    10    4   33 1
    11    5    6 1
    12    5    9 1
    13    6    7 1
    14    6   34 1
    15    6   35 1
    16    7    8 1
    17    7   36 1
    18    7   37 1
    19    8   38 1
    20    8   49 1
    21    9   14 ar
    22    9   10 ar
    23   10   11 ar
    24   10   28 1
    25   11   12 ar
    26   11   39 1
    27   12   20 1
    28   12   13 ar
    29   13   14 ar
    30   13   17 1
    31   14   15 1
    32   15   16 1
    33   16   40 1
    34   16   41 1
    35   16   42 1
    36   17   18 1
    37   17   25 1
    38   18   19 2
    39   18   43 1
    40   19   20 1
    41   19   22 1
    42   20   21 2
    43   22   23 2
    44   22   24 1
    45   25   27 1
    46   25   26 1
    47   25   44 1
    48   26   27 1
    49   26   45 1
    50   26   46 1
    51   27   47 1
    52   27   48 1
