@<TRIPOS>MOLECULE
ZINC35565249
   46    49     0     0     0
SMALL
USER_CHARGES

@<TRIPOS>ATOM
      1 C1         -0.0187    1.5258    0.0104 C.3       1 <0>        -0.1697
      2 C2          0.0021   -0.0041    0.0020 C.3       1 <0>         0.1264
      3 H1          0.4325   -0.3555   -0.9357 H         1 <0>         0.0863
      4 C3         -1.4265   -0.5326    0.1352 C.3       1 <0>        -0.1306
      5 C4         -1.3790   -2.0638    0.1349 C.3       1 <0>        -0.0724
      6 C5         -0.4820   -2.5201    1.2581 C.ar      1 <0>        -0.1255
      7 C6          0.5613   -1.7162    1.7017 C.ar      1 <0>         0.2086
      8 N1          0.8171   -0.4879    1.1253 N.pl3     1 <0>        -0.4937
      9 C7          1.8103    0.3099    1.5569 C.2       1 <0>         0.1476
     10 C8          2.6549   -0.0373    2.5889 C.2       1 <0>        -0.2970
     11 C9          2.4640   -1.3384    3.2513 C.2       1 <0>         0.4157
     12 O1          3.1855   -1.6995    4.1648 O.2       1 <0>        -0.4490
     13 C10         1.3653   -2.1837    2.7598 C.ar      1 <0>        -0.1717
     14 C11         1.1241   -3.4313    3.3421 C.ar      1 <0>        -0.0652
     15 C12         0.0982   -4.2090    2.8885 C.ar      1 <0>         0.0463
     16 C13        -0.7105   -3.7554    1.8440 C.ar      1 <0>         0.1878
     17 N2         -1.7571   -4.5522    1.3867 N.pl3     1 <0>        -0.6641
     18 C14        -3.0988   -4.4352    1.9739 C.3       1 <0>         0.1409
     19 C15        -4.1102   -4.1942    0.8488 C.3       1 <0>        -0.1369
     20 C16        -3.9766   -5.3028   -0.1978 C.3       1 <0>        -0.1476
     21 C17        -2.5694   -5.2726   -0.7986 C.3       1 <0>         0.0877
     22 H2         -2.3869   -4.2968   -1.2488 H         1 <0>         0.0580
     23 C18        -1.5421   -5.5214    0.3036 C.3       1 <0>         0.1542
     24 O2         -2.4556   -6.2876   -1.7980 O.3       1 <0>        -0.5665
     25 F1         -0.1350   -5.4157    3.4495 F         1 <0>        -0.1369
     26 C19         3.7231    0.8709    3.0187 C.2       1 <0>         0.5384
     27 O3          3.8713    1.9496    2.4593 O.co2     1 <0>        -0.7045
     28 O4          4.4665    0.5503    3.9368 O.co2     1 <0>        -0.6646
     29 H3          0.9778    1.9039   -0.2177 H         1 <0>         0.0762
     30 H4         -0.7237    1.8837   -0.7398 H         1 <0>         0.0774
     31 H5         -0.3249    1.8796    0.9949 H         1 <0>         0.0711
     32 H6         -1.8620   -0.1797    1.0701 H         1 <0>         0.0767
     33 H7         -2.0259   -0.1844   -0.7060 H         1 <0>         0.0887
     34 H8         -2.3830   -2.4608    0.2846 H         1 <0>         0.0904
     35 H9         -0.9818   -2.4170   -0.8167 H         1 <0>         0.0758
     36 H10         1.9524    1.2649    1.0729 H         1 <0>         0.1713
     37 H11         1.7496   -3.7801    4.1505 H         1 <0>         0.1487
     38 H12        -3.3494   -5.3568    2.4993 H         1 <0>         0.0560
     39 H13        -3.1209   -3.5973    2.6707 H         1 <0>         0.0737
     40 H14        -5.1198   -4.2014    1.2595 H         1 <0>         0.0735
     41 H15        -3.9132   -3.2286    0.3831 H         1 <0>         0.0693
     42 H16        -4.1494   -6.2702    0.2737 H         1 <0>         0.0707
     43 H17        -4.7120   -5.1473   -0.9873 H         1 <0>         0.0627
     44 H18        -0.5373   -5.4000   -0.1012 H         1 <0>         0.0761
     45 H19        -1.6628   -6.5336    0.6898 H         1 <0>         0.0610
     46 H20        -3.0802   -6.1909   -2.5299 H         1 <0>         0.3785
@<TRIPOS>BOND
     1    1    2 1
     2    1   29 1
     3    1   30 1
     4    1   31 1
     5    2    3 1
     6    2    8 1
     7    2    4 1
     8    4    5 1
     9    4   32 1
    10    4   33 1
    11    5    6 1
    12    5   34 1
    13    5   35 1
    14    6   16 ar
    15    6    7 ar
    16    7   13 ar
    17    7    8 1
    18    8    9 1
    19    9   10 2
    20    9   36 1
    21   10   11 1
    22   10   26 1
    23   11   12 2
    24   11   13 1
    25   13   14 ar
    26   14   15 ar
    27   14   37 1
    28   15   16 ar
    29   15   25 1
    30   16   17 1
    31   17   23 1
    32   17   18 1
    33   18   19 1
    34   18   38 1
    35   18   39 1
    36   19   20 1
    37   19   40 1
    38   19   41 1
    39   20   21 1
    40   20   42 1
    41   20   43 1
    42   21   22 1
    43   21   23 1
    44   21   24 1
    45   23   44 1
    46   23   45 1
    47   24   46 1
    48   26   27 2
    49   26   28 1
