@<TRIPOS>MOLECULE
ZINC00001875
   29    31     0     0     0
SMALL
USER_CHARGES

@<TRIPOS>ATOM
      1 C1         -0.0187    1.5258    0.0104 C.3       1 <0>        -0.1749
      2 C2          0.0021   -0.0041    0.0020 C.3       1 <0>         0.0867
      3 N1         -1.3723   -0.5112    0.0124 N.pl3     1 <0>        -0.4928
      4 C3         -1.9635   -0.7339    1.1917 C.2       1 <0>         0.1572
      5 C4         -3.2568   -1.2115    1.2879 C.2       1 <0>        -0.2974
      6 C5         -4.0085   -1.4835    0.0507 C.2       1 <0>         0.4201
      7 O1         -5.1516   -1.9049    0.0819 O.2       1 <0>        -0.4493
      8 C6         -3.3207   -1.2243   -1.2259 C.ar      1 <0>        -0.1872
      9 C7         -2.0033   -0.7332   -1.1945 C.ar      1 <0>         0.2160
     10 C8         -1.3425   -0.4795   -2.3910 C.ar      1 <0>        -0.1706
     11 C9         -1.9806   -0.7030   -3.5977 C.ar      1 <0>         0.0908
     12 C10        -3.2941   -1.1853   -3.6254 C.ar      1 <0>        -0.0233
     13 C11        -3.9581   -1.4535   -2.4469 C.ar      1 <0>        -0.0082
     14 O2         -3.6820   -1.3146   -4.9284 O.3       1 <0>        -0.3067
     15 C12        -2.7483   -0.5238   -5.6871 C.3       1 <0>         0.2134
     16 O3         -1.5545   -0.5349   -4.8828 O.3       1 <0>        -0.3084
     17 C13        -3.8703   -1.4439    2.5995 C.2       1 <0>         0.5381
     18 O4         -3.2361   -1.2147    3.6211 O.co2     1 <0>        -0.7043
     19 O5         -5.0166   -1.8671    2.6727 O.co2     1 <0>        -0.6647
     20 H1          1.0039    1.9031    0.0027 H         1 <0>         0.0734
     21 H2         -0.5459    1.8868   -0.8726 H         1 <0>         0.0618
     22 H3         -0.5289    1.8773    0.9072 H         1 <0>         0.0678
     23 H4          0.5123   -0.3556   -0.8948 H         1 <0>         0.0906
     24 H5          0.5293   -0.3651    0.8851 H         1 <0>         0.0962
     25 H6         -1.4118   -0.5343    2.0984 H         1 <0>         0.1697
     26 H7         -0.3289   -0.1068   -2.3784 H         1 <0>         0.1437
     27 H8         -4.9714   -1.8265   -2.4682 H         1 <0>         0.1496
     28 H9         -2.5598   -0.9814   -6.6582 H         1 <0>         0.1299
     29 H10        -3.1187    0.4942   -5.8081 H         1 <0>         0.0827
@<TRIPOS>BOND
     1    1    2 1
     2    1   20 1
     3    1   21 1
     4    1   22 1
     5    2    3 1
     6    2   23 1
     7    2   24 1
     8    3    9 1
     9    3    4 1
    10    4    5 2
    11    4   25 1
    12    5    6 1
    13    5   17 1
    14    6    7 2
    15    6    8 1
    16    8   13 ar
    17    8    9 ar
    18    9   10 ar
    19   10   11 ar
    20   10   26 1
    21   11   16 1
    22   11   12 ar
    23   12   13 ar
    24   12   14 1
    25   13   27 1
    26   14   15 1
    27   15   16 1
    28   15   28 1
    29   15   29 1
    30   17   18 2
    31   17   19 1
