@<TRIPOS>MOLECULE
ZINC03831282
   41    43     0     0     0
SMALL
USER_CHARGES

@<TRIPOS>ATOM
      1 C1         -0.0187    1.5258    0.0104 C.3       1 <0>        -0.1218
      2 C2          0.0021   -0.0041    0.0020 C.3       1 <0>         0.0323
      3 C3          0.9183   -0.5578   -1.1267 C.3       1 <0>         0.0300
      4 H1          1.7655    0.1146   -1.2616 H         1 <0>         0.0696
      5 N1          1.4152   -1.8973   -0.7968 N.am      1 <0>        -0.5068
      6 C4          1.5639   -2.1961    0.6340 C.3       1 <0>         0.1076
      7 H2          1.1313   -3.1348    0.9800 H         1 <0>         0.1562
      8 S1          0.9226   -0.6800    1.4567 S.3       1 <0>        -0.3064
      9 C5          3.0673   -2.2015    0.4210 C.3       1 <0>         0.0851
     10 H3          3.5574   -3.1223    0.7376 H         1 <0>         0.1405
     11 C6          2.7129   -2.1678   -1.0358 C.2       1 <0>         0.4951
     12 O1          3.3561   -2.3252   -2.0520 O.2       1 <0>        -0.4338
     13 N2          3.7428   -0.9941    0.9027 N.am      1 <0>        -0.6921
     14 C7          5.0446   -1.0426    1.2482 C.2       1 <0>         0.5209
     15 O2          5.6569   -2.0859    1.1604 O.2       1 <0>        -0.5079
     16 C8          5.7395    0.1994    1.7437 C.3       1 <0>         0.0447
     17 O3          7.1031   -0.1051    2.0435 O.3       1 <0>        -0.2884
     18 C9          7.8755    0.9132    2.5054 C.ar      1 <0>         0.1302
     19 C10         7.3307    2.1781    2.6723 C.ar      1 <0>        -0.2109
     20 C11         8.1178    3.2114    3.1424 C.ar      1 <0>        -0.0793
     21 C12         9.4477    2.9860    3.4461 C.ar      1 <0>        -0.1603
     22 C13         9.9932    1.7264    3.2802 C.ar      1 <0>        -0.0807
     23 C14         9.2087    0.6882    2.8162 C.ar      1 <0>        -0.1487
     24 C15         0.1332   -0.6267   -2.4112 C.2       1 <0>         0.5136
     25 O4          0.1177    0.3290   -3.1682 O.co2     1 <0>        -0.6849
     26 O5         -0.4864   -1.6381   -2.6935 O.co2     1 <0>        -0.6568
     27 C16        -1.4126   -0.5802   -0.0861 C.3       1 <0>        -0.1239
     28 H4          1.0039    1.9031    0.0027 H         1 <0>         0.0638
     29 H5         -0.5459    1.8868   -0.8726 H         1 <0>         0.0884
     30 H6         -0.5289    1.8773    0.9072 H         1 <0>         0.0664
     31 H7          3.2531   -0.1597    0.9729 H         1 <0>         0.4147
     32 H8          5.7000    0.9696    0.9735 H         1 <0>         0.0975
     33 H9          5.2414    0.5599    2.6438 H         1 <0>         0.0988
     34 H10         6.2921    2.3549    2.4345 H         1 <0>         0.1293
     35 H11         7.6941    4.1963    3.2725 H         1 <0>         0.1254
     36 H12        10.0615    3.7952    3.8132 H         1 <0>         0.1231
     37 H13        11.0324    1.5528    3.5178 H         1 <0>         0.1292
     38 H14         9.6341   -0.2965    2.6910 H         1 <0>         0.1325
     39 H15        -1.8843   -0.2455   -1.0100 H         1 <0>         0.0793
     40 H16        -1.3627   -1.6690   -0.0774 H         1 <0>         0.0700
     41 H17        -1.9986   -0.2365    0.7662 H         1 <0>         0.0582
@<TRIPOS>BOND
     1    1    2 1
     2    1   28 1
     3    1   29 1
     4    1   30 1
     5    2    8 1
     6    2    3 1
     7    2   27 1
     8    3    4 1
     9    3    5 1
    10    3   24 1
    11    5   11 am
    12    5    6 1
    13    6    7 1
    14    6    8 1
    15    6    9 1
    16    9   10 1
    17    9   11 1
    18    9   13 1
    19   11   12 2
    20   13   14 am
    21   13   31 1
    22   14   15 2
    23   14   16 1
    24   16   17 1
    25   16   32 1
    26   16   33 1
    27   17   18 1
    28   18   23 ar
    29   18   19 ar
    30   19   20 ar
    31   19   34 1
    32   20   21 ar
    33   20   35 1
    34   21   22 ar
    35   21   36 1
    36   22   23 ar
    37   22   37 1
    38   23   38 1
    39   24   25 2
    40   24   26 1
    41   27   39 1
    42   27   40 1
    43   27   41 1
